
---------- Begin Simulation Statistics ----------
simSeconds                                   0.128957                       # Number of seconds simulated (Second)
simTicks                                 128957252000                       # Number of ticks simulated (Tick)
finalTick                                156373555000                       # Number of ticks from beginning of simulation (restored from checkpoints and never reset) (Tick)
simFreq                                  1000000000000                       # The number of ticks per simulated second ((Tick/Second))
hostSeconds                                    518.01                       # Real time elapsed on the host (Second)
hostTickRate                                248948463                       # The number of ticks simulated per host second (ticks/s) ((Tick/Second))
hostMemory                                    8604992                       # Number of bytes of host memory used (Byte)
simInsts                                    131787680                       # Number of instructions simulated (Count)
simOps                                      131804589                       # Number of ops (including micro ops) simulated (Count)
hostInstRate                                   254412                       # Simulator instruction rate (inst/s) ((Count/Second))
hostOpRate                                     254445                       # Simulator op (including micro ops) rate (op/s) ((Count/Second))
system.clk_domain.clock                          1000                       # Clock period in ticks (Tick)
system.cpu.numCycles                                0                       # Number of cpu cycles simulated (Cycle)
system.cpu.numWorkItemsStarted                      0                       # Number of work items this cpu started (Count)
system.cpu.numWorkItemsCompleted                    0                       # Number of work items this cpu completed (Count)
system.cpu.dcache.demandHits::switch_cpus.data     34188865                       # number of demand (read+write) hits (Count)
system.cpu.dcache.demandHits::total          34188865                       # number of demand (read+write) hits (Count)
system.cpu.dcache.overallHits::switch_cpus.data     34188865                       # number of overall hits (Count)
system.cpu.dcache.overallHits::total         34188865                       # number of overall hits (Count)
system.cpu.dcache.demandMisses::switch_cpus.data      3867581                       # number of demand (read+write) misses (Count)
system.cpu.dcache.demandMisses::total         3867581                       # number of demand (read+write) misses (Count)
system.cpu.dcache.overallMisses::switch_cpus.data      3867581                       # number of overall misses (Count)
system.cpu.dcache.overallMisses::total        3867581                       # number of overall misses (Count)
system.cpu.dcache.demandMissLatency::switch_cpus.data 271573207562                       # number of demand (read+write) miss ticks (Tick)
system.cpu.dcache.demandMissLatency::total 271573207562                       # number of demand (read+write) miss ticks (Tick)
system.cpu.dcache.overallMissLatency::switch_cpus.data 271573207562                       # number of overall miss ticks (Tick)
system.cpu.dcache.overallMissLatency::total 271573207562                       # number of overall miss ticks (Tick)
system.cpu.dcache.demandAccesses::switch_cpus.data     38056446                       # number of demand (read+write) accesses (Count)
system.cpu.dcache.demandAccesses::total      38056446                       # number of demand (read+write) accesses (Count)
system.cpu.dcache.overallAccesses::switch_cpus.data     38056446                       # number of overall (read+write) accesses (Count)
system.cpu.dcache.overallAccesses::total     38056446                       # number of overall (read+write) accesses (Count)
system.cpu.dcache.demandMissRate::switch_cpus.data     0.101627                       # miss rate for demand accesses (Ratio)
system.cpu.dcache.demandMissRate::total      0.101627                       # miss rate for demand accesses (Ratio)
system.cpu.dcache.overallMissRate::switch_cpus.data     0.101627                       # miss rate for overall accesses (Ratio)
system.cpu.dcache.overallMissRate::total     0.101627                       # miss rate for overall accesses (Ratio)
system.cpu.dcache.demandAvgMissLatency::switch_cpus.data 70217.846132                       # average overall miss latency ((Cycle/Count))
system.cpu.dcache.demandAvgMissLatency::total 70217.846132                       # average overall miss latency ((Cycle/Count))
system.cpu.dcache.overallAvgMissLatency::switch_cpus.data 70217.846132                       # average overall miss latency ((Cycle/Count))
system.cpu.dcache.overallAvgMissLatency::total 70217.846132                       # average overall miss latency ((Cycle/Count))
system.cpu.dcache.blockedCycles::no_mshrs       727705                       # number of cycles access was blocked (Cycle)
system.cpu.dcache.blockedCycles::no_targets         1776                       # number of cycles access was blocked (Cycle)
system.cpu.dcache.blockedCauses::no_mshrs        18495                       # number of times access was blocked (Count)
system.cpu.dcache.blockedCauses::no_targets           51                       # number of times access was blocked (Count)
system.cpu.dcache.avgBlocked::no_mshrs      39.346039                       # average number of cycles each access was blocked ((Cycle/Count))
system.cpu.dcache.avgBlocked::no_targets    34.823529                       # average number of cycles each access was blocked ((Cycle/Count))
system.cpu.dcache.writebacks::writebacks        77496                       # number of writebacks (Count)
system.cpu.dcache.writebacks::total             77496                       # number of writebacks (Count)
system.cpu.dcache.demandMshrHits::switch_cpus.data      2657213                       # number of demand (read+write) MSHR hits (Count)
system.cpu.dcache.demandMshrHits::total       2657213                       # number of demand (read+write) MSHR hits (Count)
system.cpu.dcache.overallMshrHits::switch_cpus.data      2657213                       # number of overall MSHR hits (Count)
system.cpu.dcache.overallMshrHits::total      2657213                       # number of overall MSHR hits (Count)
system.cpu.dcache.demandMshrMisses::switch_cpus.data      1210368                       # number of demand (read+write) MSHR misses (Count)
system.cpu.dcache.demandMshrMisses::total      1210368                       # number of demand (read+write) MSHR misses (Count)
system.cpu.dcache.overallMshrMisses::switch_cpus.data      1210368                       # number of overall MSHR misses (Count)
system.cpu.dcache.overallMshrMisses::total      1210368                       # number of overall MSHR misses (Count)
system.cpu.dcache.demandMshrMissLatency::switch_cpus.data  92090412599                       # number of demand (read+write) MSHR miss ticks (Tick)
system.cpu.dcache.demandMshrMissLatency::total  92090412599                       # number of demand (read+write) MSHR miss ticks (Tick)
system.cpu.dcache.overallMshrMissLatency::switch_cpus.data  92090412599                       # number of overall MSHR miss ticks (Tick)
system.cpu.dcache.overallMshrMissLatency::total  92090412599                       # number of overall MSHR miss ticks (Tick)
system.cpu.dcache.demandMshrMissRate::switch_cpus.data     0.031805                       # mshr miss ratio for demand accesses (Ratio)
system.cpu.dcache.demandMshrMissRate::total     0.031805                       # mshr miss ratio for demand accesses (Ratio)
system.cpu.dcache.overallMshrMissRate::switch_cpus.data     0.031805                       # mshr miss ratio for overall accesses (Ratio)
system.cpu.dcache.overallMshrMissRate::total     0.031805                       # mshr miss ratio for overall accesses (Ratio)
system.cpu.dcache.demandAvgMshrMissLatency::switch_cpus.data 76084.639216                       # average overall mshr miss latency ((Cycle/Count))
system.cpu.dcache.demandAvgMshrMissLatency::total 76084.639216                       # average overall mshr miss latency ((Cycle/Count))
system.cpu.dcache.overallAvgMshrMissLatency::switch_cpus.data 76084.639216                       # average overall mshr miss latency ((Cycle/Count))
system.cpu.dcache.overallAvgMshrMissLatency::total 76084.639216                       # average overall mshr miss latency ((Cycle/Count))
system.cpu.dcache.replacements                1210370                       # number of replacements (Count)
system.cpu.dcache.LoadLockedReq.hits::switch_cpus.data          189                       # number of LoadLockedReq hits (Count)
system.cpu.dcache.LoadLockedReq.hits::total          189                       # number of LoadLockedReq hits (Count)
system.cpu.dcache.LoadLockedReq.misses::switch_cpus.data            8                       # number of LoadLockedReq misses (Count)
system.cpu.dcache.LoadLockedReq.misses::total            8                       # number of LoadLockedReq misses (Count)
system.cpu.dcache.LoadLockedReq.missLatency::switch_cpus.data       613000                       # number of LoadLockedReq miss ticks (Tick)
system.cpu.dcache.LoadLockedReq.missLatency::total       613000                       # number of LoadLockedReq miss ticks (Tick)
system.cpu.dcache.LoadLockedReq.accesses::switch_cpus.data          197                       # number of LoadLockedReq accesses(hits+misses) (Count)
system.cpu.dcache.LoadLockedReq.accesses::total          197                       # number of LoadLockedReq accesses(hits+misses) (Count)
system.cpu.dcache.LoadLockedReq.missRate::switch_cpus.data     0.040609                       # miss rate for LoadLockedReq accesses (Ratio)
system.cpu.dcache.LoadLockedReq.missRate::total     0.040609                       # miss rate for LoadLockedReq accesses (Ratio)
system.cpu.dcache.LoadLockedReq.avgMissLatency::switch_cpus.data        76625                       # average LoadLockedReq miss latency ((Tick/Count))
system.cpu.dcache.LoadLockedReq.avgMissLatency::total        76625                       # average LoadLockedReq miss latency ((Tick/Count))
system.cpu.dcache.LoadLockedReq.mshrHits::switch_cpus.data            6                       # number of LoadLockedReq MSHR hits (Count)
system.cpu.dcache.LoadLockedReq.mshrHits::total            6                       # number of LoadLockedReq MSHR hits (Count)
system.cpu.dcache.LoadLockedReq.mshrMisses::switch_cpus.data            2                       # number of LoadLockedReq MSHR misses (Count)
system.cpu.dcache.LoadLockedReq.mshrMisses::total            2                       # number of LoadLockedReq MSHR misses (Count)
system.cpu.dcache.LoadLockedReq.mshrMissLatency::switch_cpus.data       173000                       # number of LoadLockedReq MSHR miss ticks (Tick)
system.cpu.dcache.LoadLockedReq.mshrMissLatency::total       173000                       # number of LoadLockedReq MSHR miss ticks (Tick)
system.cpu.dcache.LoadLockedReq.mshrMissRate::switch_cpus.data     0.010152                       # mshr miss rate for LoadLockedReq accesses (Ratio)
system.cpu.dcache.LoadLockedReq.mshrMissRate::total     0.010152                       # mshr miss rate for LoadLockedReq accesses (Ratio)
system.cpu.dcache.LoadLockedReq.avgMshrMissLatency::switch_cpus.data        86500                       # average LoadLockedReq mshr miss latency ((Tick/Count))
system.cpu.dcache.LoadLockedReq.avgMshrMissLatency::total        86500                       # average LoadLockedReq mshr miss latency ((Tick/Count))
system.cpu.dcache.ReadReq.hits::switch_cpus.data     25761056                       # number of ReadReq hits (Count)
system.cpu.dcache.ReadReq.hits::total        25761056                       # number of ReadReq hits (Count)
system.cpu.dcache.ReadReq.misses::switch_cpus.data      3737418                       # number of ReadReq misses (Count)
system.cpu.dcache.ReadReq.misses::total       3737418                       # number of ReadReq misses (Count)
system.cpu.dcache.ReadReq.missLatency::switch_cpus.data 263236391000                       # number of ReadReq miss ticks (Tick)
system.cpu.dcache.ReadReq.missLatency::total 263236391000                       # number of ReadReq miss ticks (Tick)
system.cpu.dcache.ReadReq.accesses::switch_cpus.data     29498474                       # number of ReadReq accesses(hits+misses) (Count)
system.cpu.dcache.ReadReq.accesses::total     29498474                       # number of ReadReq accesses(hits+misses) (Count)
system.cpu.dcache.ReadReq.missRate::switch_cpus.data     0.126699                       # miss rate for ReadReq accesses (Ratio)
system.cpu.dcache.ReadReq.missRate::total     0.126699                       # miss rate for ReadReq accesses (Ratio)
system.cpu.dcache.ReadReq.avgMissLatency::switch_cpus.data 70432.686684                       # average ReadReq miss latency ((Tick/Count))
system.cpu.dcache.ReadReq.avgMissLatency::total 70432.686684                       # average ReadReq miss latency ((Tick/Count))
system.cpu.dcache.ReadReq.mshrHits::switch_cpus.data      2547157                       # number of ReadReq MSHR hits (Count)
system.cpu.dcache.ReadReq.mshrHits::total      2547157                       # number of ReadReq MSHR hits (Count)
system.cpu.dcache.ReadReq.mshrMisses::switch_cpus.data      1190261                       # number of ReadReq MSHR misses (Count)
system.cpu.dcache.ReadReq.mshrMisses::total      1190261                       # number of ReadReq MSHR misses (Count)
system.cpu.dcache.ReadReq.mshrMissLatency::switch_cpus.data  90609804000                       # number of ReadReq MSHR miss ticks (Tick)
system.cpu.dcache.ReadReq.mshrMissLatency::total  90609804000                       # number of ReadReq MSHR miss ticks (Tick)
system.cpu.dcache.ReadReq.mshrMissRate::switch_cpus.data     0.040350                       # mshr miss rate for ReadReq accesses (Ratio)
system.cpu.dcache.ReadReq.mshrMissRate::total     0.040350                       # mshr miss rate for ReadReq accesses (Ratio)
system.cpu.dcache.ReadReq.avgMshrMissLatency::switch_cpus.data 76125.995895                       # average ReadReq mshr miss latency ((Tick/Count))
system.cpu.dcache.ReadReq.avgMshrMissLatency::total 76125.995895                       # average ReadReq mshr miss latency ((Tick/Count))
system.cpu.dcache.StoreCondReq.hits::switch_cpus.data          179                       # number of StoreCondReq hits (Count)
system.cpu.dcache.StoreCondReq.hits::total          179                       # number of StoreCondReq hits (Count)
system.cpu.dcache.StoreCondReq.accesses::switch_cpus.data          179                       # number of StoreCondReq accesses(hits+misses) (Count)
system.cpu.dcache.StoreCondReq.accesses::total          179                       # number of StoreCondReq accesses(hits+misses) (Count)
system.cpu.dcache.SwapReq.hits::switch_cpus.data          241                       # number of SwapReq hits (Count)
system.cpu.dcache.SwapReq.hits::total             241                       # number of SwapReq hits (Count)
system.cpu.dcache.SwapReq.accesses::switch_cpus.data          241                       # number of SwapReq accesses(hits+misses) (Count)
system.cpu.dcache.SwapReq.accesses::total          241                       # number of SwapReq accesses(hits+misses) (Count)
system.cpu.dcache.WriteReq.hits::switch_cpus.data      8427809                       # number of WriteReq hits (Count)
system.cpu.dcache.WriteReq.hits::total        8427809                       # number of WriteReq hits (Count)
system.cpu.dcache.WriteReq.misses::switch_cpus.data       130163                       # number of WriteReq misses (Count)
system.cpu.dcache.WriteReq.misses::total       130163                       # number of WriteReq misses (Count)
system.cpu.dcache.WriteReq.missLatency::switch_cpus.data   8336816562                       # number of WriteReq miss ticks (Tick)
system.cpu.dcache.WriteReq.missLatency::total   8336816562                       # number of WriteReq miss ticks (Tick)
system.cpu.dcache.WriteReq.accesses::switch_cpus.data      8557972                       # number of WriteReq accesses(hits+misses) (Count)
system.cpu.dcache.WriteReq.accesses::total      8557972                       # number of WriteReq accesses(hits+misses) (Count)
system.cpu.dcache.WriteReq.missRate::switch_cpus.data     0.015210                       # miss rate for WriteReq accesses (Ratio)
system.cpu.dcache.WriteReq.missRate::total     0.015210                       # miss rate for WriteReq accesses (Ratio)
system.cpu.dcache.WriteReq.avgMissLatency::switch_cpus.data 64049.050514                       # average WriteReq miss latency ((Tick/Count))
system.cpu.dcache.WriteReq.avgMissLatency::total 64049.050514                       # average WriteReq miss latency ((Tick/Count))
system.cpu.dcache.WriteReq.mshrHits::switch_cpus.data       110056                       # number of WriteReq MSHR hits (Count)
system.cpu.dcache.WriteReq.mshrHits::total       110056                       # number of WriteReq MSHR hits (Count)
system.cpu.dcache.WriteReq.mshrMisses::switch_cpus.data        20107                       # number of WriteReq MSHR misses (Count)
system.cpu.dcache.WriteReq.mshrMisses::total        20107                       # number of WriteReq MSHR misses (Count)
system.cpu.dcache.WriteReq.mshrMissLatency::switch_cpus.data   1480608599                       # number of WriteReq MSHR miss ticks (Tick)
system.cpu.dcache.WriteReq.mshrMissLatency::total   1480608599                       # number of WriteReq MSHR miss ticks (Tick)
system.cpu.dcache.WriteReq.mshrMissRate::switch_cpus.data     0.002350                       # mshr miss rate for WriteReq accesses (Ratio)
system.cpu.dcache.WriteReq.mshrMissRate::total     0.002350                       # mshr miss rate for WriteReq accesses (Ratio)
system.cpu.dcache.WriteReq.avgMshrMissLatency::switch_cpus.data 73636.474810                       # average WriteReq mshr miss latency ((Tick/Count))
system.cpu.dcache.WriteReq.avgMshrMissLatency::total 73636.474810                       # average WriteReq mshr miss latency ((Tick/Count))
system.cpu.dcache.power_state.pwrStateResidencyTicks::UNDEFINED 156373555000                       # Cumulative time (in ticks) in various power states (Tick)
system.cpu.dcache.tags.tagsInUse                 1024                       # Average ticks per tags in use ((Tick/Count))
system.cpu.dcache.tags.totalRefs             41106562                       # Total number of references to valid blocks. (Count)
system.cpu.dcache.tags.sampledRefs            1211394                       # Sample count of references to valid blocks. (Count)
system.cpu.dcache.tags.avgRefs              33.933272                       # Average number of references to valid blocks. ((Count/Count))
system.cpu.dcache.tags.warmupTick                   0                       # The tick when the warmup percentage was hit. (Tick)
system.cpu.dcache.tags.occupancies::cpu.data     0.206332                       # Average occupied blocks per tick, per requestor ((Count/Tick))
system.cpu.dcache.tags.occupancies::switch_cpus.data  1023.793668                       # Average occupied blocks per tick, per requestor ((Count/Tick))
system.cpu.dcache.tags.avgOccs::cpu.data     0.000201                       # Average percentage of cache occupancy ((Ratio/Tick))
system.cpu.dcache.tags.avgOccs::switch_cpus.data     0.999799                       # Average percentage of cache occupancy ((Ratio/Tick))
system.cpu.dcache.tags.avgOccs::total               1                       # Average percentage of cache occupancy ((Ratio/Tick))
system.cpu.dcache.tags.occupanciesTaskId::1024         1024                       # Occupied blocks per task id (Count)
system.cpu.dcache.tags.ageTaskId_1024::0           54                       # Occupied blocks per task id, per block age (Count)
system.cpu.dcache.tags.ageTaskId_1024::1          531                       # Occupied blocks per task id, per block age (Count)
system.cpu.dcache.tags.ageTaskId_1024::2          385                       # Occupied blocks per task id, per block age (Count)
system.cpu.dcache.tags.ageTaskId_1024::3           17                       # Occupied blocks per task id, per block age (Count)
system.cpu.dcache.tags.ageTaskId_1024::4           37                       # Occupied blocks per task id, per block age (Count)
system.cpu.dcache.tags.ratioOccsTaskId::1024            1                       # Ratio of occupied blocks and all blocks, per task id (Ratio)
system.cpu.dcache.tags.tagAccesses          305666874                       # Number of tag accesses (Count)
system.cpu.dcache.tags.dataAccesses         305666874                       # Number of data accesses (Count)
system.cpu.dcache.tags.power_state.pwrStateResidencyTicks::UNDEFINED 156373555000                       # Cumulative time (in ticks) in various power states (Tick)
system.cpu.dtb_walker_cache.blockedCycles::no_mshrs            0                       # number of cycles access was blocked (Cycle)
system.cpu.dtb_walker_cache.blockedCycles::no_targets            0                       # number of cycles access was blocked (Cycle)
system.cpu.dtb_walker_cache.blockedCauses::no_mshrs            0                       # number of times access was blocked (Count)
system.cpu.dtb_walker_cache.blockedCauses::no_targets            0                       # number of times access was blocked (Count)
system.cpu.dtb_walker_cache.avgBlocked::no_mshrs          nan                       # average number of cycles each access was blocked ((Cycle/Count))
system.cpu.dtb_walker_cache.avgBlocked::no_targets          nan                       # average number of cycles each access was blocked ((Cycle/Count))
system.cpu.dtb_walker_cache.replacements            0                       # number of replacements (Count)
system.cpu.dtb_walker_cache.power_state.pwrStateResidencyTicks::UNDEFINED 156373555000                       # Cumulative time (in ticks) in various power states (Tick)
system.cpu.dtb_walker_cache.tags.tagsInUse            0                       # Average ticks per tags in use ((Tick/Count))
system.cpu.dtb_walker_cache.tags.totalRefs            0                       # Total number of references to valid blocks. (Count)
system.cpu.dtb_walker_cache.tags.sampledRefs            0                       # Sample count of references to valid blocks. (Count)
system.cpu.dtb_walker_cache.tags.avgRefs          nan                       # Average number of references to valid blocks. ((Count/Count))
system.cpu.dtb_walker_cache.tags.warmupTick            0                       # The tick when the warmup percentage was hit. (Tick)
system.cpu.dtb_walker_cache.tags.tagAccesses            0                       # Number of tag accesses (Count)
system.cpu.dtb_walker_cache.tags.dataAccesses            0                       # Number of data accesses (Count)
system.cpu.dtb_walker_cache.tags.power_state.pwrStateResidencyTicks::UNDEFINED 156373555000                       # Cumulative time (in ticks) in various power states (Tick)
system.cpu.exec_context.thread_0.numInsts            0                       # Number of instructions committed (Count)
system.cpu.exec_context.thread_0.numOps             0                       # Number of ops (including micro ops) committed (Count)
system.cpu.exec_context.thread_0.numCmovInsts            0                       # Number of cmov instructions executed (Count)
system.cpu.exec_context.thread_0.numIntAluAccesses            0                       # Number of integer alu accesses (Count)
system.cpu.exec_context.thread_0.numFpAluAccesses            0                       # Number of float alu accesses (Count)
system.cpu.exec_context.thread_0.numVecAluAccesses            0                       # Number of vector alu accesses (Count)
system.cpu.exec_context.thread_0.numCallsReturns            0                       # Number of times a function call or return occured (Count)
system.cpu.exec_context.thread_0.numCondCtrlInsts            0                       # Number of instructions that are conditional controls (Count)
system.cpu.exec_context.thread_0.numIntInsts            0                       # Number of integer instructions (Count)
system.cpu.exec_context.thread_0.numFpInsts            0                       # Number of float instructions (Count)
system.cpu.exec_context.thread_0.numVecInsts            0                       # Number of vector instructions (Count)
system.cpu.exec_context.thread_0.numIntRegReads            0                       # Number of times the integer registers were read (Count)
system.cpu.exec_context.thread_0.numIntRegWrites            0                       # Number of times the integer registers were written (Count)
system.cpu.exec_context.thread_0.numFpRegReads            0                       # Number of times the floating registers were read (Count)
system.cpu.exec_context.thread_0.numFpRegWrites            0                       # Number of times the floating registers were written (Count)
system.cpu.exec_context.thread_0.numVecRegReads            0                       # Number of times the vector registers were read (Count)
system.cpu.exec_context.thread_0.numVecRegWrites            0                       # Number of times the vector registers were written (Count)
system.cpu.exec_context.thread_0.numVecPredRegReads            0                       # Number of times the predicate registers were read (Count)
system.cpu.exec_context.thread_0.numVecPredRegWrites            0                       # Number of times the predicate registers were written (Count)
system.cpu.exec_context.thread_0.numMemRefs            0                       # Number of memory refs (Count)
system.cpu.exec_context.thread_0.numLoadInsts            0                       # Number of load instructions (Count)
system.cpu.exec_context.thread_0.numStoreInsts            0                       # Number of store instructions (Count)
system.cpu.exec_context.thread_0.numIdleCycles            0                       # Number of idle cycles (Cycle)
system.cpu.exec_context.thread_0.numBusyCycles            0                       # Number of busy cycles (Cycle)
system.cpu.exec_context.thread_0.notIdleFraction            1                       # Percentage of non-idle cycles (Ratio)
system.cpu.exec_context.thread_0.idleFraction            0                       # Percentage of idle cycles (Ratio)
system.cpu.exec_context.thread_0.statExecutedInstType::No_OpClass            0                       # Class of executed instruction. (Count)
system.cpu.exec_context.thread_0.statExecutedInstType::IntAlu            0                       # Class of executed instruction. (Count)
system.cpu.exec_context.thread_0.statExecutedInstType::IntMult            0                       # Class of executed instruction. (Count)
system.cpu.exec_context.thread_0.statExecutedInstType::IntDiv            0                       # Class of executed instruction. (Count)
system.cpu.exec_context.thread_0.statExecutedInstType::FloatAdd            0                       # Class of executed instruction. (Count)
system.cpu.exec_context.thread_0.statExecutedInstType::FloatCmp            0                       # Class of executed instruction. (Count)
system.cpu.exec_context.thread_0.statExecutedInstType::FloatCvt            0                       # Class of executed instruction. (Count)
system.cpu.exec_context.thread_0.statExecutedInstType::FloatMult            0                       # Class of executed instruction. (Count)
system.cpu.exec_context.thread_0.statExecutedInstType::FloatMultAcc            0                       # Class of executed instruction. (Count)
system.cpu.exec_context.thread_0.statExecutedInstType::FloatDiv            0                       # Class of executed instruction. (Count)
system.cpu.exec_context.thread_0.statExecutedInstType::FloatMisc            0                       # Class of executed instruction. (Count)
system.cpu.exec_context.thread_0.statExecutedInstType::FloatSqrt            0                       # Class of executed instruction. (Count)
system.cpu.exec_context.thread_0.statExecutedInstType::SimdAdd            0                       # Class of executed instruction. (Count)
system.cpu.exec_context.thread_0.statExecutedInstType::SimdAddAcc            0                       # Class of executed instruction. (Count)
system.cpu.exec_context.thread_0.statExecutedInstType::SimdAlu            0                       # Class of executed instruction. (Count)
system.cpu.exec_context.thread_0.statExecutedInstType::SimdCmp            0                       # Class of executed instruction. (Count)
system.cpu.exec_context.thread_0.statExecutedInstType::SimdCvt            0                       # Class of executed instruction. (Count)
system.cpu.exec_context.thread_0.statExecutedInstType::SimdMisc            0                       # Class of executed instruction. (Count)
system.cpu.exec_context.thread_0.statExecutedInstType::SimdMult            0                       # Class of executed instruction. (Count)
system.cpu.exec_context.thread_0.statExecutedInstType::SimdMultAcc            0                       # Class of executed instruction. (Count)
system.cpu.exec_context.thread_0.statExecutedInstType::SimdShift            0                       # Class of executed instruction. (Count)
system.cpu.exec_context.thread_0.statExecutedInstType::SimdShiftAcc            0                       # Class of executed instruction. (Count)
system.cpu.exec_context.thread_0.statExecutedInstType::SimdDiv            0                       # Class of executed instruction. (Count)
system.cpu.exec_context.thread_0.statExecutedInstType::SimdSqrt            0                       # Class of executed instruction. (Count)
system.cpu.exec_context.thread_0.statExecutedInstType::SimdFloatAdd            0                       # Class of executed instruction. (Count)
system.cpu.exec_context.thread_0.statExecutedInstType::SimdFloatAlu            0                       # Class of executed instruction. (Count)
system.cpu.exec_context.thread_0.statExecutedInstType::SimdFloatCmp            0                       # Class of executed instruction. (Count)
system.cpu.exec_context.thread_0.statExecutedInstType::SimdFloatCvt            0                       # Class of executed instruction. (Count)
system.cpu.exec_context.thread_0.statExecutedInstType::SimdFloatDiv            0                       # Class of executed instruction. (Count)
system.cpu.exec_context.thread_0.statExecutedInstType::SimdFloatMisc            0                       # Class of executed instruction. (Count)
system.cpu.exec_context.thread_0.statExecutedInstType::SimdFloatMult            0                       # Class of executed instruction. (Count)
system.cpu.exec_context.thread_0.statExecutedInstType::SimdFloatMultAcc            0                       # Class of executed instruction. (Count)
system.cpu.exec_context.thread_0.statExecutedInstType::SimdFloatSqrt            0                       # Class of executed instruction. (Count)
system.cpu.exec_context.thread_0.statExecutedInstType::SimdReduceAdd            0                       # Class of executed instruction. (Count)
system.cpu.exec_context.thread_0.statExecutedInstType::SimdReduceAlu            0                       # Class of executed instruction. (Count)
system.cpu.exec_context.thread_0.statExecutedInstType::SimdReduceCmp            0                       # Class of executed instruction. (Count)
system.cpu.exec_context.thread_0.statExecutedInstType::SimdFloatReduceAdd            0                       # Class of executed instruction. (Count)
system.cpu.exec_context.thread_0.statExecutedInstType::SimdFloatReduceCmp            0                       # Class of executed instruction. (Count)
system.cpu.exec_context.thread_0.statExecutedInstType::SimdAes            0                       # Class of executed instruction. (Count)
system.cpu.exec_context.thread_0.statExecutedInstType::SimdAesMix            0                       # Class of executed instruction. (Count)
system.cpu.exec_context.thread_0.statExecutedInstType::SimdSha1Hash            0                       # Class of executed instruction. (Count)
system.cpu.exec_context.thread_0.statExecutedInstType::SimdSha1Hash2            0                       # Class of executed instruction. (Count)
system.cpu.exec_context.thread_0.statExecutedInstType::SimdSha256Hash            0                       # Class of executed instruction. (Count)
system.cpu.exec_context.thread_0.statExecutedInstType::SimdSha256Hash2            0                       # Class of executed instruction. (Count)
system.cpu.exec_context.thread_0.statExecutedInstType::SimdShaSigma2            0                       # Class of executed instruction. (Count)
system.cpu.exec_context.thread_0.statExecutedInstType::SimdShaSigma3            0                       # Class of executed instruction. (Count)
system.cpu.exec_context.thread_0.statExecutedInstType::SimdPredAlu            0                       # Class of executed instruction. (Count)
system.cpu.exec_context.thread_0.statExecutedInstType::MemRead            0                       # Class of executed instruction. (Count)
system.cpu.exec_context.thread_0.statExecutedInstType::MemWrite            0                       # Class of executed instruction. (Count)
system.cpu.exec_context.thread_0.statExecutedInstType::FloatMemRead            0                       # Class of executed instruction. (Count)
system.cpu.exec_context.thread_0.statExecutedInstType::FloatMemWrite            0                       # Class of executed instruction. (Count)
system.cpu.exec_context.thread_0.statExecutedInstType::IprAccess            0                       # Class of executed instruction. (Count)
system.cpu.exec_context.thread_0.statExecutedInstType::InstPrefetch            0                       # Class of executed instruction. (Count)
system.cpu.exec_context.thread_0.statExecutedInstType::total            0                       # Class of executed instruction. (Count)
system.cpu.icache.demandHits::switch_cpus.inst     35816377                       # number of demand (read+write) hits (Count)
system.cpu.icache.demandHits::total          35816377                       # number of demand (read+write) hits (Count)
system.cpu.icache.overallHits::switch_cpus.inst     35816377                       # number of overall hits (Count)
system.cpu.icache.overallHits::total         35816377                       # number of overall hits (Count)
system.cpu.icache.demandMisses::switch_cpus.inst        31157                       # number of demand (read+write) misses (Count)
system.cpu.icache.demandMisses::total           31157                       # number of demand (read+write) misses (Count)
system.cpu.icache.overallMisses::switch_cpus.inst        31157                       # number of overall misses (Count)
system.cpu.icache.overallMisses::total          31157                       # number of overall misses (Count)
system.cpu.icache.demandMissLatency::switch_cpus.inst    612626998                       # number of demand (read+write) miss ticks (Tick)
system.cpu.icache.demandMissLatency::total    612626998                       # number of demand (read+write) miss ticks (Tick)
system.cpu.icache.overallMissLatency::switch_cpus.inst    612626998                       # number of overall miss ticks (Tick)
system.cpu.icache.overallMissLatency::total    612626998                       # number of overall miss ticks (Tick)
system.cpu.icache.demandAccesses::switch_cpus.inst     35847534                       # number of demand (read+write) accesses (Count)
system.cpu.icache.demandAccesses::total      35847534                       # number of demand (read+write) accesses (Count)
system.cpu.icache.overallAccesses::switch_cpus.inst     35847534                       # number of overall (read+write) accesses (Count)
system.cpu.icache.overallAccesses::total     35847534                       # number of overall (read+write) accesses (Count)
system.cpu.icache.demandMissRate::switch_cpus.inst     0.000869                       # miss rate for demand accesses (Ratio)
system.cpu.icache.demandMissRate::total      0.000869                       # miss rate for demand accesses (Ratio)
system.cpu.icache.overallMissRate::switch_cpus.inst     0.000869                       # miss rate for overall accesses (Ratio)
system.cpu.icache.overallMissRate::total     0.000869                       # miss rate for overall accesses (Ratio)
system.cpu.icache.demandAvgMissLatency::switch_cpus.inst 19662.579773                       # average overall miss latency ((Cycle/Count))
system.cpu.icache.demandAvgMissLatency::total 19662.579773                       # average overall miss latency ((Cycle/Count))
system.cpu.icache.overallAvgMissLatency::switch_cpus.inst 19662.579773                       # average overall miss latency ((Cycle/Count))
system.cpu.icache.overallAvgMissLatency::total 19662.579773                       # average overall miss latency ((Cycle/Count))
system.cpu.icache.blockedCycles::no_mshrs         1359                       # number of cycles access was blocked (Cycle)
system.cpu.icache.blockedCycles::no_targets            0                       # number of cycles access was blocked (Cycle)
system.cpu.icache.blockedCauses::no_mshrs           40                       # number of times access was blocked (Count)
system.cpu.icache.blockedCauses::no_targets            0                       # number of times access was blocked (Count)
system.cpu.icache.avgBlocked::no_mshrs      33.975000                       # average number of cycles each access was blocked ((Cycle/Count))
system.cpu.icache.avgBlocked::no_targets          nan                       # average number of cycles each access was blocked ((Cycle/Count))
system.cpu.icache.writebacks::writebacks        28946                       # number of writebacks (Count)
system.cpu.icache.writebacks::total             28946                       # number of writebacks (Count)
system.cpu.icache.demandMshrHits::switch_cpus.inst         2207                       # number of demand (read+write) MSHR hits (Count)
system.cpu.icache.demandMshrHits::total          2207                       # number of demand (read+write) MSHR hits (Count)
system.cpu.icache.overallMshrHits::switch_cpus.inst         2207                       # number of overall MSHR hits (Count)
system.cpu.icache.overallMshrHits::total         2207                       # number of overall MSHR hits (Count)
system.cpu.icache.demandMshrMisses::switch_cpus.inst        28950                       # number of demand (read+write) MSHR misses (Count)
system.cpu.icache.demandMshrMisses::total        28950                       # number of demand (read+write) MSHR misses (Count)
system.cpu.icache.overallMshrMisses::switch_cpus.inst        28950                       # number of overall MSHR misses (Count)
system.cpu.icache.overallMshrMisses::total        28950                       # number of overall MSHR misses (Count)
system.cpu.icache.demandMshrMissLatency::switch_cpus.inst    542908498                       # number of demand (read+write) MSHR miss ticks (Tick)
system.cpu.icache.demandMshrMissLatency::total    542908498                       # number of demand (read+write) MSHR miss ticks (Tick)
system.cpu.icache.overallMshrMissLatency::switch_cpus.inst    542908498                       # number of overall MSHR miss ticks (Tick)
system.cpu.icache.overallMshrMissLatency::total    542908498                       # number of overall MSHR miss ticks (Tick)
system.cpu.icache.demandMshrMissRate::switch_cpus.inst     0.000808                       # mshr miss ratio for demand accesses (Ratio)
system.cpu.icache.demandMshrMissRate::total     0.000808                       # mshr miss ratio for demand accesses (Ratio)
system.cpu.icache.overallMshrMissRate::switch_cpus.inst     0.000808                       # mshr miss ratio for overall accesses (Ratio)
system.cpu.icache.overallMshrMissRate::total     0.000808                       # mshr miss ratio for overall accesses (Ratio)
system.cpu.icache.demandAvgMshrMissLatency::switch_cpus.inst 18753.315993                       # average overall mshr miss latency ((Cycle/Count))
system.cpu.icache.demandAvgMshrMissLatency::total 18753.315993                       # average overall mshr miss latency ((Cycle/Count))
system.cpu.icache.overallAvgMshrMissLatency::switch_cpus.inst 18753.315993                       # average overall mshr miss latency ((Cycle/Count))
system.cpu.icache.overallAvgMshrMissLatency::total 18753.315993                       # average overall mshr miss latency ((Cycle/Count))
system.cpu.icache.replacements                  28946                       # number of replacements (Count)
system.cpu.icache.ReadReq.hits::switch_cpus.inst     35816377                       # number of ReadReq hits (Count)
system.cpu.icache.ReadReq.hits::total        35816377                       # number of ReadReq hits (Count)
system.cpu.icache.ReadReq.misses::switch_cpus.inst        31157                       # number of ReadReq misses (Count)
system.cpu.icache.ReadReq.misses::total         31157                       # number of ReadReq misses (Count)
system.cpu.icache.ReadReq.missLatency::switch_cpus.inst    612626998                       # number of ReadReq miss ticks (Tick)
system.cpu.icache.ReadReq.missLatency::total    612626998                       # number of ReadReq miss ticks (Tick)
system.cpu.icache.ReadReq.accesses::switch_cpus.inst     35847534                       # number of ReadReq accesses(hits+misses) (Count)
system.cpu.icache.ReadReq.accesses::total     35847534                       # number of ReadReq accesses(hits+misses) (Count)
system.cpu.icache.ReadReq.missRate::switch_cpus.inst     0.000869                       # miss rate for ReadReq accesses (Ratio)
system.cpu.icache.ReadReq.missRate::total     0.000869                       # miss rate for ReadReq accesses (Ratio)
system.cpu.icache.ReadReq.avgMissLatency::switch_cpus.inst 19662.579773                       # average ReadReq miss latency ((Tick/Count))
system.cpu.icache.ReadReq.avgMissLatency::total 19662.579773                       # average ReadReq miss latency ((Tick/Count))
system.cpu.icache.ReadReq.mshrHits::switch_cpus.inst         2207                       # number of ReadReq MSHR hits (Count)
system.cpu.icache.ReadReq.mshrHits::total         2207                       # number of ReadReq MSHR hits (Count)
system.cpu.icache.ReadReq.mshrMisses::switch_cpus.inst        28950                       # number of ReadReq MSHR misses (Count)
system.cpu.icache.ReadReq.mshrMisses::total        28950                       # number of ReadReq MSHR misses (Count)
system.cpu.icache.ReadReq.mshrMissLatency::switch_cpus.inst    542908498                       # number of ReadReq MSHR miss ticks (Tick)
system.cpu.icache.ReadReq.mshrMissLatency::total    542908498                       # number of ReadReq MSHR miss ticks (Tick)
system.cpu.icache.ReadReq.mshrMissRate::switch_cpus.inst     0.000808                       # mshr miss rate for ReadReq accesses (Ratio)
system.cpu.icache.ReadReq.mshrMissRate::total     0.000808                       # mshr miss rate for ReadReq accesses (Ratio)
system.cpu.icache.ReadReq.avgMshrMissLatency::switch_cpus.inst 18753.315993                       # average ReadReq mshr miss latency ((Tick/Count))
system.cpu.icache.ReadReq.avgMshrMissLatency::total 18753.315993                       # average ReadReq mshr miss latency ((Tick/Count))
system.cpu.icache.power_state.pwrStateResidencyTicks::UNDEFINED 156373555000                       # Cumulative time (in ticks) in various power states (Tick)
system.cpu.icache.tags.tagsInUse           255.993714                       # Average ticks per tags in use ((Tick/Count))
system.cpu.icache.tags.totalRefs             86380379                       # Total number of references to valid blocks. (Count)
system.cpu.icache.tags.sampledRefs              29202                       # Sample count of references to valid blocks. (Count)
system.cpu.icache.tags.avgRefs            2958.029553                       # Average number of references to valid blocks. ((Count/Count))
system.cpu.icache.tags.warmupTick                   0                       # The tick when the warmup percentage was hit. (Tick)
system.cpu.icache.tags.occupancies::cpu.inst    12.036734                       # Average occupied blocks per tick, per requestor ((Count/Tick))
system.cpu.icache.tags.occupancies::switch_cpus.inst   243.956980                       # Average occupied blocks per tick, per requestor ((Count/Tick))
system.cpu.icache.tags.avgOccs::cpu.inst     0.047018                       # Average percentage of cache occupancy ((Ratio/Tick))
system.cpu.icache.tags.avgOccs::switch_cpus.inst     0.952957                       # Average percentage of cache occupancy ((Ratio/Tick))
system.cpu.icache.tags.avgOccs::total        0.999975                       # Average percentage of cache occupancy ((Ratio/Tick))
system.cpu.icache.tags.occupanciesTaskId::1024          256                       # Occupied blocks per task id (Count)
system.cpu.icache.tags.ageTaskId_1024::0          105                       # Occupied blocks per task id, per block age (Count)
system.cpu.icache.tags.ageTaskId_1024::1           19                       # Occupied blocks per task id, per block age (Count)
system.cpu.icache.tags.ageTaskId_1024::4          132                       # Occupied blocks per task id, per block age (Count)
system.cpu.icache.tags.ratioOccsTaskId::1024            1                       # Ratio of occupied blocks and all blocks, per task id (Ratio)
system.cpu.icache.tags.tagAccesses          143419085                       # Number of tag accesses (Count)
system.cpu.icache.tags.dataAccesses         143419085                       # Number of data accesses (Count)
system.cpu.icache.tags.power_state.pwrStateResidencyTicks::UNDEFINED 156373555000                       # Cumulative time (in ticks) in various power states (Tick)
system.cpu.itb_walker_cache.blockedCycles::no_mshrs            0                       # number of cycles access was blocked (Cycle)
system.cpu.itb_walker_cache.blockedCycles::no_targets            0                       # number of cycles access was blocked (Cycle)
system.cpu.itb_walker_cache.blockedCauses::no_mshrs            0                       # number of times access was blocked (Count)
system.cpu.itb_walker_cache.blockedCauses::no_targets            0                       # number of times access was blocked (Count)
system.cpu.itb_walker_cache.avgBlocked::no_mshrs          nan                       # average number of cycles each access was blocked ((Cycle/Count))
system.cpu.itb_walker_cache.avgBlocked::no_targets          nan                       # average number of cycles each access was blocked ((Cycle/Count))
system.cpu.itb_walker_cache.replacements            0                       # number of replacements (Count)
system.cpu.itb_walker_cache.power_state.pwrStateResidencyTicks::UNDEFINED 156373555000                       # Cumulative time (in ticks) in various power states (Tick)
system.cpu.itb_walker_cache.tags.tagsInUse            0                       # Average ticks per tags in use ((Tick/Count))
system.cpu.itb_walker_cache.tags.totalRefs            0                       # Total number of references to valid blocks. (Count)
system.cpu.itb_walker_cache.tags.sampledRefs            0                       # Sample count of references to valid blocks. (Count)
system.cpu.itb_walker_cache.tags.avgRefs          nan                       # Average number of references to valid blocks. ((Count/Count))
system.cpu.itb_walker_cache.tags.warmupTick            0                       # The tick when the warmup percentage was hit. (Tick)
system.cpu.itb_walker_cache.tags.tagAccesses            0                       # Number of tag accesses (Count)
system.cpu.itb_walker_cache.tags.dataAccesses            0                       # Number of data accesses (Count)
system.cpu.itb_walker_cache.tags.power_state.pwrStateResidencyTicks::UNDEFINED 156373555000                       # Cumulative time (in ticks) in various power states (Tick)
system.cpu.mmu.dtb.readHits                         0                       # read hits (Count)
system.cpu.mmu.dtb.readMisses                       0                       # read misses (Count)
system.cpu.mmu.dtb.readAccesses                     0                       # read accesses (Count)
system.cpu.mmu.dtb.writeHits                        0                       # write hits (Count)
system.cpu.mmu.dtb.writeMisses                      0                       # write misses (Count)
system.cpu.mmu.dtb.writeAccesses                    0                       # write accesses (Count)
system.cpu.mmu.dtb.hits                             0                       # Total TLB (read and write) hits (Count)
system.cpu.mmu.dtb.misses                           0                       # Total TLB (read and write) misses (Count)
system.cpu.mmu.dtb.accesses                         0                       # Total TLB (read and write) accesses (Count)
system.cpu.mmu.dtb.walker.power_state.pwrStateResidencyTicks::UNDEFINED 156373555000                       # Cumulative time (in ticks) in various power states (Tick)
system.cpu.mmu.itb.readHits                         0                       # read hits (Count)
system.cpu.mmu.itb.readMisses                       0                       # read misses (Count)
system.cpu.mmu.itb.readAccesses                     0                       # read accesses (Count)
system.cpu.mmu.itb.writeHits                        0                       # write hits (Count)
system.cpu.mmu.itb.writeMisses                      0                       # write misses (Count)
system.cpu.mmu.itb.writeAccesses                    0                       # write accesses (Count)
system.cpu.mmu.itb.hits                             0                       # Total TLB (read and write) hits (Count)
system.cpu.mmu.itb.misses                           0                       # Total TLB (read and write) misses (Count)
system.cpu.mmu.itb.accesses                         0                       # Total TLB (read and write) accesses (Count)
system.cpu.mmu.itb.walker.power_state.pwrStateResidencyTicks::UNDEFINED 156373555000                       # Cumulative time (in ticks) in various power states (Tick)
system.cpu.power_state.pwrStateResidencyTicks::OFF 128957252000                       # Cumulative time (in ticks) in various power states (Tick)
system.cpu.thread_0.numInsts                        0                       # Number of Instructions committed (Count)
system.cpu.thread_0.numOps                          0                       # Number of Ops committed (Count)
system.cpu.thread_0.numMemRefs                      0                       # Number of Memory References (Count)
system.cpu.workload.numSyscalls                    20                       # Number of system calls (Count)
system.cpu_clk_domain.clock                       500                       # Clock period in ticks (Tick)
system.cpu_voltage_domain.voltage                   1                       # Voltage in Volts (Volt)
system.l2.demandHits::switch_cpus.inst          26279                       # number of demand (read+write) hits (Count)
system.l2.demandHits::switch_cpus.data          33065                       # number of demand (read+write) hits (Count)
system.l2.demandHits::total                     59344                       # number of demand (read+write) hits (Count)
system.l2.overallHits::switch_cpus.inst         26279                       # number of overall hits (Count)
system.l2.overallHits::switch_cpus.data         33065                       # number of overall hits (Count)
system.l2.overallHits::total                    59344                       # number of overall hits (Count)
system.l2.demandMisses::switch_cpus.inst         2671                       # number of demand (read+write) misses (Count)
system.l2.demandMisses::switch_cpus.data      1177297                       # number of demand (read+write) misses (Count)
system.l2.demandMisses::total                 1179968                       # number of demand (read+write) misses (Count)
system.l2.overallMisses::switch_cpus.inst         2671                       # number of overall misses (Count)
system.l2.overallMisses::switch_cpus.data      1177297                       # number of overall misses (Count)
system.l2.overallMisses::total                1179968                       # number of overall misses (Count)
system.l2.demandMissLatency::switch_cpus.inst    221934500                       # number of demand (read+write) miss ticks (Tick)
system.l2.demandMissLatency::switch_cpus.data  89908061000                       # number of demand (read+write) miss ticks (Tick)
system.l2.demandMissLatency::total        90129995500                       # number of demand (read+write) miss ticks (Tick)
system.l2.overallMissLatency::switch_cpus.inst    221934500                       # number of overall miss ticks (Tick)
system.l2.overallMissLatency::switch_cpus.data  89908061000                       # number of overall miss ticks (Tick)
system.l2.overallMissLatency::total       90129995500                       # number of overall miss ticks (Tick)
system.l2.demandAccesses::switch_cpus.inst        28950                       # number of demand (read+write) accesses (Count)
system.l2.demandAccesses::switch_cpus.data      1210362                       # number of demand (read+write) accesses (Count)
system.l2.demandAccesses::total               1239312                       # number of demand (read+write) accesses (Count)
system.l2.overallAccesses::switch_cpus.inst        28950                       # number of overall (read+write) accesses (Count)
system.l2.overallAccesses::switch_cpus.data      1210362                       # number of overall (read+write) accesses (Count)
system.l2.overallAccesses::total              1239312                       # number of overall (read+write) accesses (Count)
system.l2.demandMissRate::switch_cpus.inst     0.092263                       # miss rate for demand accesses (Ratio)
system.l2.demandMissRate::switch_cpus.data     0.972682                       # miss rate for demand accesses (Ratio)
system.l2.demandMissRate::total              0.952115                       # miss rate for demand accesses (Ratio)
system.l2.overallMissRate::switch_cpus.inst     0.092263                       # miss rate for overall accesses (Ratio)
system.l2.overallMissRate::switch_cpus.data     0.972682                       # miss rate for overall accesses (Ratio)
system.l2.overallMissRate::total             0.952115                       # miss rate for overall accesses (Ratio)
system.l2.demandAvgMissLatency::switch_cpus.inst 83090.415575                       # average overall miss latency ((Cycle/Count))
system.l2.demandAvgMissLatency::switch_cpus.data 76368.207003                       # average overall miss latency ((Cycle/Count))
system.l2.demandAvgMissLatency::total    76383.423534                       # average overall miss latency ((Cycle/Count))
system.l2.overallAvgMissLatency::switch_cpus.inst 83090.415575                       # average overall miss latency ((Cycle/Count))
system.l2.overallAvgMissLatency::switch_cpus.data 76368.207003                       # average overall miss latency ((Cycle/Count))
system.l2.overallAvgMissLatency::total   76383.423534                       # average overall miss latency ((Cycle/Count))
system.l2.blockedCycles::no_mshrs                   0                       # number of cycles access was blocked (Cycle)
system.l2.blockedCycles::no_targets                 0                       # number of cycles access was blocked (Cycle)
system.l2.blockedCauses::no_mshrs                   0                       # number of times access was blocked (Count)
system.l2.blockedCauses::no_targets                 0                       # number of times access was blocked (Count)
system.l2.avgBlocked::no_mshrs                    nan                       # average number of cycles each access was blocked ((Cycle/Count))
system.l2.avgBlocked::no_targets                  nan                       # average number of cycles each access was blocked ((Cycle/Count))
system.l2.writebacks::writebacks                74519                       # number of writebacks (Count)
system.l2.writebacks::total                     74519                       # number of writebacks (Count)
system.l2.demandMshrMisses::switch_cpus.inst         2671                       # number of demand (read+write) MSHR misses (Count)
system.l2.demandMshrMisses::switch_cpus.data      1177297                       # number of demand (read+write) MSHR misses (Count)
system.l2.demandMshrMisses::total             1179968                       # number of demand (read+write) MSHR misses (Count)
system.l2.overallMshrMisses::switch_cpus.inst         2671                       # number of overall MSHR misses (Count)
system.l2.overallMshrMisses::switch_cpus.data      1177297                       # number of overall MSHR misses (Count)
system.l2.overallMshrMisses::total            1179968                       # number of overall MSHR misses (Count)
system.l2.demandMshrMissLatency::switch_cpus.inst    195234500                       # number of demand (read+write) MSHR miss ticks (Tick)
system.l2.demandMshrMissLatency::switch_cpus.data  78135091000                       # number of demand (read+write) MSHR miss ticks (Tick)
system.l2.demandMshrMissLatency::total    78330325500                       # number of demand (read+write) MSHR miss ticks (Tick)
system.l2.overallMshrMissLatency::switch_cpus.inst    195234500                       # number of overall MSHR miss ticks (Tick)
system.l2.overallMshrMissLatency::switch_cpus.data  78135091000                       # number of overall MSHR miss ticks (Tick)
system.l2.overallMshrMissLatency::total   78330325500                       # number of overall MSHR miss ticks (Tick)
system.l2.demandMshrMissRate::switch_cpus.inst     0.092263                       # mshr miss ratio for demand accesses (Ratio)
system.l2.demandMshrMissRate::switch_cpus.data     0.972682                       # mshr miss ratio for demand accesses (Ratio)
system.l2.demandMshrMissRate::total          0.952115                       # mshr miss ratio for demand accesses (Ratio)
system.l2.overallMshrMissRate::switch_cpus.inst     0.092263                       # mshr miss ratio for overall accesses (Ratio)
system.l2.overallMshrMissRate::switch_cpus.data     0.972682                       # mshr miss ratio for overall accesses (Ratio)
system.l2.overallMshrMissRate::total         0.952115                       # mshr miss ratio for overall accesses (Ratio)
system.l2.demandAvgMshrMissLatency::switch_cpus.inst 73094.159491                       # average overall mshr miss latency ((Cycle/Count))
system.l2.demandAvgMshrMissLatency::switch_cpus.data 66368.207003                       # average overall mshr miss latency ((Cycle/Count))
system.l2.demandAvgMshrMissLatency::total 66383.432008                       # average overall mshr miss latency ((Cycle/Count))
system.l2.overallAvgMshrMissLatency::switch_cpus.inst 73094.159491                       # average overall mshr miss latency ((Cycle/Count))
system.l2.overallAvgMshrMissLatency::switch_cpus.data 66368.207003                       # average overall mshr miss latency ((Cycle/Count))
system.l2.overallAvgMshrMissLatency::total 66383.432008                       # average overall mshr miss latency ((Cycle/Count))
system.l2.replacements                        1180961                       # number of replacements (Count)
system.l2.CleanEvict.mshrMisses::writebacks           74                       # number of CleanEvict MSHR misses (Count)
system.l2.CleanEvict.mshrMisses::total             74                       # number of CleanEvict MSHR misses (Count)
system.l2.CleanEvict.mshrMissRate::writebacks          inf                       # mshr miss rate for CleanEvict accesses (Ratio)
system.l2.CleanEvict.mshrMissRate::total          inf                       # mshr miss rate for CleanEvict accesses (Ratio)
system.l2.InvalidateReq.hits::switch_cpus.data            3                       # number of InvalidateReq hits (Count)
system.l2.InvalidateReq.hits::total                 3                       # number of InvalidateReq hits (Count)
system.l2.InvalidateReq.misses::switch_cpus.data            5                       # number of InvalidateReq misses (Count)
system.l2.InvalidateReq.misses::total               5                       # number of InvalidateReq misses (Count)
system.l2.InvalidateReq.accesses::switch_cpus.data            8                       # number of InvalidateReq accesses(hits+misses) (Count)
system.l2.InvalidateReq.accesses::total             8                       # number of InvalidateReq accesses(hits+misses) (Count)
system.l2.InvalidateReq.missRate::switch_cpus.data     0.625000                       # miss rate for InvalidateReq accesses (Ratio)
system.l2.InvalidateReq.missRate::total      0.625000                       # miss rate for InvalidateReq accesses (Ratio)
system.l2.InvalidateReq.mshrMisses::switch_cpus.data            5                       # number of InvalidateReq MSHR misses (Count)
system.l2.InvalidateReq.mshrMisses::total            5                       # number of InvalidateReq MSHR misses (Count)
system.l2.InvalidateReq.mshrMissLatency::switch_cpus.data        96000                       # number of InvalidateReq MSHR miss ticks (Tick)
system.l2.InvalidateReq.mshrMissLatency::total        96000                       # number of InvalidateReq MSHR miss ticks (Tick)
system.l2.InvalidateReq.mshrMissRate::switch_cpus.data     0.625000                       # mshr miss rate for InvalidateReq accesses (Ratio)
system.l2.InvalidateReq.mshrMissRate::total     0.625000                       # mshr miss rate for InvalidateReq accesses (Ratio)
system.l2.InvalidateReq.avgMshrMissLatency::switch_cpus.data        19200                       # average InvalidateReq mshr miss latency ((Tick/Count))
system.l2.InvalidateReq.avgMshrMissLatency::total        19200                       # average InvalidateReq mshr miss latency ((Tick/Count))
system.l2.ReadCleanReq.hits::switch_cpus.inst        26279                       # number of ReadCleanReq hits (Count)
system.l2.ReadCleanReq.hits::total              26279                       # number of ReadCleanReq hits (Count)
system.l2.ReadCleanReq.misses::switch_cpus.inst         2671                       # number of ReadCleanReq misses (Count)
system.l2.ReadCleanReq.misses::total             2671                       # number of ReadCleanReq misses (Count)
system.l2.ReadCleanReq.missLatency::switch_cpus.inst    221934500                       # number of ReadCleanReq miss ticks (Tick)
system.l2.ReadCleanReq.missLatency::total    221934500                       # number of ReadCleanReq miss ticks (Tick)
system.l2.ReadCleanReq.accesses::switch_cpus.inst        28950                       # number of ReadCleanReq accesses(hits+misses) (Count)
system.l2.ReadCleanReq.accesses::total          28950                       # number of ReadCleanReq accesses(hits+misses) (Count)
system.l2.ReadCleanReq.missRate::switch_cpus.inst     0.092263                       # miss rate for ReadCleanReq accesses (Ratio)
system.l2.ReadCleanReq.missRate::total       0.092263                       # miss rate for ReadCleanReq accesses (Ratio)
system.l2.ReadCleanReq.avgMissLatency::switch_cpus.inst 83090.415575                       # average ReadCleanReq miss latency ((Tick/Count))
system.l2.ReadCleanReq.avgMissLatency::total 83090.415575                       # average ReadCleanReq miss latency ((Tick/Count))
system.l2.ReadCleanReq.mshrMisses::switch_cpus.inst         2671                       # number of ReadCleanReq MSHR misses (Count)
system.l2.ReadCleanReq.mshrMisses::total         2671                       # number of ReadCleanReq MSHR misses (Count)
system.l2.ReadCleanReq.mshrMissLatency::switch_cpus.inst    195234500                       # number of ReadCleanReq MSHR miss ticks (Tick)
system.l2.ReadCleanReq.mshrMissLatency::total    195234500                       # number of ReadCleanReq MSHR miss ticks (Tick)
system.l2.ReadCleanReq.mshrMissRate::switch_cpus.inst     0.092263                       # mshr miss rate for ReadCleanReq accesses (Ratio)
system.l2.ReadCleanReq.mshrMissRate::total     0.092263                       # mshr miss rate for ReadCleanReq accesses (Ratio)
system.l2.ReadCleanReq.avgMshrMissLatency::switch_cpus.inst 73094.159491                       # average ReadCleanReq mshr miss latency ((Tick/Count))
system.l2.ReadCleanReq.avgMshrMissLatency::total 73094.159491                       # average ReadCleanReq mshr miss latency ((Tick/Count))
system.l2.ReadExReq.hits::switch_cpus.data         2044                       # number of ReadExReq hits (Count)
system.l2.ReadExReq.hits::total                  2044                       # number of ReadExReq hits (Count)
system.l2.ReadExReq.misses::switch_cpus.data        18055                       # number of ReadExReq misses (Count)
system.l2.ReadExReq.misses::total               18055                       # number of ReadExReq misses (Count)
system.l2.ReadExReq.missLatency::switch_cpus.data   1425031000                       # number of ReadExReq miss ticks (Tick)
system.l2.ReadExReq.missLatency::total     1425031000                       # number of ReadExReq miss ticks (Tick)
system.l2.ReadExReq.accesses::switch_cpus.data        20099                       # number of ReadExReq accesses(hits+misses) (Count)
system.l2.ReadExReq.accesses::total             20099                       # number of ReadExReq accesses(hits+misses) (Count)
system.l2.ReadExReq.missRate::switch_cpus.data     0.898303                       # miss rate for ReadExReq accesses (Ratio)
system.l2.ReadExReq.missRate::total          0.898303                       # miss rate for ReadExReq accesses (Ratio)
system.l2.ReadExReq.avgMissLatency::switch_cpus.data 78927.222376                       # average ReadExReq miss latency ((Tick/Count))
system.l2.ReadExReq.avgMissLatency::total 78927.222376                       # average ReadExReq miss latency ((Tick/Count))
system.l2.ReadExReq.mshrMisses::switch_cpus.data        18055                       # number of ReadExReq MSHR misses (Count)
system.l2.ReadExReq.mshrMisses::total           18055                       # number of ReadExReq MSHR misses (Count)
system.l2.ReadExReq.mshrMissLatency::switch_cpus.data   1244481000                       # number of ReadExReq MSHR miss ticks (Tick)
system.l2.ReadExReq.mshrMissLatency::total   1244481000                       # number of ReadExReq MSHR miss ticks (Tick)
system.l2.ReadExReq.mshrMissRate::switch_cpus.data     0.898303                       # mshr miss rate for ReadExReq accesses (Ratio)
system.l2.ReadExReq.mshrMissRate::total      0.898303                       # mshr miss rate for ReadExReq accesses (Ratio)
system.l2.ReadExReq.avgMshrMissLatency::switch_cpus.data 68927.222376                       # average ReadExReq mshr miss latency ((Tick/Count))
system.l2.ReadExReq.avgMshrMissLatency::total 68927.222376                       # average ReadExReq mshr miss latency ((Tick/Count))
system.l2.ReadSharedReq.hits::switch_cpus.data        31021                       # number of ReadSharedReq hits (Count)
system.l2.ReadSharedReq.hits::total             31021                       # number of ReadSharedReq hits (Count)
system.l2.ReadSharedReq.misses::switch_cpus.data      1159242                       # number of ReadSharedReq misses (Count)
system.l2.ReadSharedReq.misses::total         1159242                       # number of ReadSharedReq misses (Count)
system.l2.ReadSharedReq.missLatency::switch_cpus.data  88483030000                       # number of ReadSharedReq miss ticks (Tick)
system.l2.ReadSharedReq.missLatency::total  88483030000                       # number of ReadSharedReq miss ticks (Tick)
system.l2.ReadSharedReq.accesses::switch_cpus.data      1190263                       # number of ReadSharedReq accesses(hits+misses) (Count)
system.l2.ReadSharedReq.accesses::total       1190263                       # number of ReadSharedReq accesses(hits+misses) (Count)
system.l2.ReadSharedReq.missRate::switch_cpus.data     0.973938                       # miss rate for ReadSharedReq accesses (Ratio)
system.l2.ReadSharedReq.missRate::total      0.973938                       # miss rate for ReadSharedReq accesses (Ratio)
system.l2.ReadSharedReq.avgMissLatency::switch_cpus.data 76328.350767                       # average ReadSharedReq miss latency ((Tick/Count))
system.l2.ReadSharedReq.avgMissLatency::total 76328.350767                       # average ReadSharedReq miss latency ((Tick/Count))
system.l2.ReadSharedReq.mshrMisses::switch_cpus.data      1159242                       # number of ReadSharedReq MSHR misses (Count)
system.l2.ReadSharedReq.mshrMisses::total      1159242                       # number of ReadSharedReq MSHR misses (Count)
system.l2.ReadSharedReq.mshrMissLatency::switch_cpus.data  76890610000                       # number of ReadSharedReq MSHR miss ticks (Tick)
system.l2.ReadSharedReq.mshrMissLatency::total  76890610000                       # number of ReadSharedReq MSHR miss ticks (Tick)
system.l2.ReadSharedReq.mshrMissRate::switch_cpus.data     0.973938                       # mshr miss rate for ReadSharedReq accesses (Ratio)
system.l2.ReadSharedReq.mshrMissRate::total     0.973938                       # mshr miss rate for ReadSharedReq accesses (Ratio)
system.l2.ReadSharedReq.avgMshrMissLatency::switch_cpus.data 66328.350767                       # average ReadSharedReq mshr miss latency ((Tick/Count))
system.l2.ReadSharedReq.avgMshrMissLatency::total 66328.350767                       # average ReadSharedReq mshr miss latency ((Tick/Count))
system.l2.WritebackClean.hits::writebacks        28941                       # number of WritebackClean hits (Count)
system.l2.WritebackClean.hits::total            28941                       # number of WritebackClean hits (Count)
system.l2.WritebackClean.accesses::writebacks        28941                       # number of WritebackClean accesses(hits+misses) (Count)
system.l2.WritebackClean.accesses::total        28941                       # number of WritebackClean accesses(hits+misses) (Count)
system.l2.WritebackDirty.hits::writebacks        77496                       # number of WritebackDirty hits (Count)
system.l2.WritebackDirty.hits::total            77496                       # number of WritebackDirty hits (Count)
system.l2.WritebackDirty.accesses::writebacks        77496                       # number of WritebackDirty accesses(hits+misses) (Count)
system.l2.WritebackDirty.accesses::total        77496                       # number of WritebackDirty accesses(hits+misses) (Count)
system.l2.power_state.pwrStateResidencyTicks::UNDEFINED 156373555000                       # Cumulative time (in ticks) in various power states (Tick)
system.l2.tags.tagsInUse                 32767.999315                       # Average ticks per tags in use ((Tick/Count))
system.l2.tags.totalRefs                      2543112                       # Total number of references to valid blocks. (Count)
system.l2.tags.sampledRefs                    1213732                       # Sample count of references to valid blocks. (Count)
system.l2.tags.avgRefs                       2.095283                       # Average number of references to valid blocks. ((Count/Count))
system.l2.tags.warmupTick                           0                       # The tick when the warmup percentage was hit. (Tick)
system.l2.tags.occupancies::writebacks      21.279980                       # Average occupied blocks per tick, per requestor ((Count/Tick))
system.l2.tags.occupancies::cpu.data       332.112346                       # Average occupied blocks per tick, per requestor ((Count/Tick))
system.l2.tags.occupancies::switch_cpus.inst    61.116039                       # Average occupied blocks per tick, per requestor ((Count/Tick))
system.l2.tags.occupancies::switch_cpus.data 32353.490951                       # Average occupied blocks per tick, per requestor ((Count/Tick))
system.l2.tags.avgOccs::writebacks           0.000649                       # Average percentage of cache occupancy ((Ratio/Tick))
system.l2.tags.avgOccs::cpu.data             0.010135                       # Average percentage of cache occupancy ((Ratio/Tick))
system.l2.tags.avgOccs::switch_cpus.inst     0.001865                       # Average percentage of cache occupancy ((Ratio/Tick))
system.l2.tags.avgOccs::switch_cpus.data     0.987350                       # Average percentage of cache occupancy ((Ratio/Tick))
system.l2.tags.avgOccs::total                1.000000                       # Average percentage of cache occupancy ((Ratio/Tick))
system.l2.tags.occupanciesTaskId::1024          32768                       # Occupied blocks per task id (Count)
system.l2.tags.ageTaskId_1024::0                  257                       # Occupied blocks per task id, per block age (Count)
system.l2.tags.ageTaskId_1024::1                  559                       # Occupied blocks per task id, per block age (Count)
system.l2.tags.ageTaskId_1024::2                 4823                       # Occupied blocks per task id, per block age (Count)
system.l2.tags.ageTaskId_1024::3                27090                       # Occupied blocks per task id, per block age (Count)
system.l2.tags.ageTaskId_1024::4                   39                       # Occupied blocks per task id, per block age (Count)
system.l2.tags.ratioOccsTaskId::1024                1                       # Ratio of occupied blocks and all blocks, per task id (Ratio)
system.l2.tags.tagAccesses                   40839012                       # Number of tag accesses (Count)
system.l2.tags.dataAccesses                  40839012                       # Number of data accesses (Count)
system.l2.tags.power_state.pwrStateResidencyTicks::UNDEFINED 156373555000                       # Cumulative time (in ticks) in various power states (Tick)
system.mem_ctrls.avgPriority_writebacks::samples     74519.00                       # Average QoS priority value for accepted requests (Count)
system.mem_ctrls.avgPriority_switch_cpus.inst::samples      2671.00                       # Average QoS priority value for accepted requests (Count)
system.mem_ctrls.avgPriority_switch_cpus.data::samples   1177257.00                       # Average QoS priority value for accepted requests (Count)
system.mem_ctrls.priorityMinLatency      0.000000018750                       # per QoS priority minimum request to response latency (Second)
system.mem_ctrls.priorityMaxLatency      0.022945060500                       # per QoS priority maximum request to response latency (Second)
system.mem_ctrls.numReadWriteTurnArounds         4545                       # Number of turnarounds from READ to WRITE (Count)
system.mem_ctrls.numWriteReadTurnArounds         4545                       # Number of turnarounds from WRITE to READ (Count)
system.mem_ctrls.numStayReadState             2457771                       # Number of times bus staying in READ state (Count)
system.mem_ctrls.numStayWriteState              70057                       # Number of times bus staying in WRITE state (Count)
system.mem_ctrls.readReqs                     1179968                       # Number of read requests accepted (Count)
system.mem_ctrls.writeReqs                      74519                       # Number of write requests accepted (Count)
system.mem_ctrls.readBursts                   1179968                       # Number of controller read bursts, including those serviced by the write queue (Count)
system.mem_ctrls.writeBursts                    74519                       # Number of controller write bursts, including those merged in the write queue (Count)
system.mem_ctrls.servicedByWrQ                     40                       # Number of controller read bursts serviced by the write queue (Count)
system.mem_ctrls.mergedWrBursts                     0                       # Number of controller write bursts merged with an existing one (Count)
system.mem_ctrls.neitherReadNorWriteReqs            0                       # Number of requests that are neither read nor write (Count)
system.mem_ctrls.avgRdQLen                       1.08                       # Average read queue length when enqueuing ((Count/Tick))
system.mem_ctrls.avgWrQLen                      25.04                       # Average write queue length when enqueuing ((Count/Tick))
system.mem_ctrls.numRdRetry                         0                       # Number of times read queue was full causing retry (Count)
system.mem_ctrls.numWrRetry                         0                       # Number of times write queue was full causing retry (Count)
system.mem_ctrls.readPktSize::0                     0                       # Read request sizes (log2) (Count)
system.mem_ctrls.readPktSize::1                     0                       # Read request sizes (log2) (Count)
system.mem_ctrls.readPktSize::2                     0                       # Read request sizes (log2) (Count)
system.mem_ctrls.readPktSize::3                     0                       # Read request sizes (log2) (Count)
system.mem_ctrls.readPktSize::4                     0                       # Read request sizes (log2) (Count)
system.mem_ctrls.readPktSize::5                     0                       # Read request sizes (log2) (Count)
system.mem_ctrls.readPktSize::6               1179968                       # Read request sizes (log2) (Count)
system.mem_ctrls.writePktSize::0                    0                       # Write request sizes (log2) (Count)
system.mem_ctrls.writePktSize::1                    0                       # Write request sizes (log2) (Count)
system.mem_ctrls.writePktSize::2                    0                       # Write request sizes (log2) (Count)
system.mem_ctrls.writePktSize::3                    0                       # Write request sizes (log2) (Count)
system.mem_ctrls.writePktSize::4                    0                       # Write request sizes (log2) (Count)
system.mem_ctrls.writePktSize::5                    0                       # Write request sizes (log2) (Count)
system.mem_ctrls.writePktSize::6                74519                       # Write request sizes (log2) (Count)
system.mem_ctrls.rdQLenPdf::0                 1096108                       # What read queue length does an incoming req see (Count)
system.mem_ctrls.rdQLenPdf::1                   73354                       # What read queue length does an incoming req see (Count)
system.mem_ctrls.rdQLenPdf::2                    7335                       # What read queue length does an incoming req see (Count)
system.mem_ctrls.rdQLenPdf::3                    3098                       # What read queue length does an incoming req see (Count)
[...]
system.switch_cpus.fetch.nisnDist::4          1498107      0.58%     99.13% # Number of instructions fetched each cycle (Total)
system.switch_cpus.fetch.nisnDist::5          1773709      0.69%     99.82% # Number of instructions fetched each cycle (Total)
system.switch_cpus.fetch.nisnDist::6           318347      0.12%     99.95% # Number of instructions fetched each cycle (Total)
system.switch_cpus.fetch.nisnDist::7            63900      0.02%     99.97% # Number of instructions fetched each cycle (Total)
system.switch_cpus.fetch.nisnDist::8            77080      0.03%    100.00% # Number of instructions fetched each cycle (Total)
system.switch_cpus.fetch.nisnDist::overflows            0      0.00%    100.00% # Number of instructions fetched each cycle (Total)
system.switch_cpus.fetch.nisnDist::min_value            0                       # Number of instructions fetched each cycle (Total)
system.switch_cpus.fetch.nisnDist::max_value            8                       # Number of instructions fetched each cycle (Total)
system.switch_cpus.fetch.nisnDist::total    257527600                       # Number of instructions fetched each cycle (Total)
system.switch_cpus.fetch.branchRate          0.158885                       # Number of branch fetches per cycle (Ratio)
system.switch_cpus.fetch.rate                0.672271                       # Number of inst fetches per cycle ((Count/Cycle))
system.switch_cpus.lsq0.forwLoads             1720612                       # Number of loads that had data forwarded from stores (Count)
system.switch_cpus.lsq0.squashedLoads        13203486                       # Number of loads squashed (Count)
system.switch_cpus.lsq0.ignoredResponses       180778                       # Number of memory responses ignored because the instruction is squashed (Count)
system.switch_cpus.lsq0.memOrderViolation          650                       # Number of memory ordering violations (Count)
system.switch_cpus.lsq0.squashedStores        4190164                       # Number of stores squashed (Count)
system.switch_cpus.lsq0.rescheduledLoads           42                       # Number of loads that were rescheduled (Count)
system.switch_cpus.lsq0.blockedByCache          17046                       # Number of times an access to memory failed due to the cache being blocked (Count)
system.switch_cpus.lsq0.loadToUse::samples     23205537                       # Distribution of cycle latency between the first time a load is issued and its completion
system.switch_cpus.lsq0.loadToUse::mean     18.752896                       # Distribution of cycle latency between the first time a load is issued and its completion
system.switch_cpus.lsq0.loadToUse::stdev    49.412229                       # Distribution of cycle latency between the first time a load is issued and its completion
system.switch_cpus.lsq0.loadToUse::0-9       20697098     89.19%     89.19% # Distribution of cycle latency between the first time a load is issued and its completion
system.switch_cpus.lsq0.loadToUse::10-19         3572      0.02%     89.21% # Distribution of cycle latency between the first time a load is issued and its completion
system.switch_cpus.lsq0.loadToUse::20-29        38516      0.17%     89.37% # Distribution of cycle latency between the first time a load is issued and its completion
system.switch_cpus.lsq0.loadToUse::30-39         4944      0.02%     89.39% # Distribution of cycle latency between the first time a load is issued and its completion
system.switch_cpus.lsq0.loadToUse::40-49         2807      0.01%     89.41% # Distribution of cycle latency between the first time a load is issued and its completion
system.switch_cpus.lsq0.loadToUse::50-59         7332      0.03%     89.44% # Distribution of cycle latency between the first time a load is issued and its completion
system.switch_cpus.lsq0.loadToUse::60-69        16287      0.07%     89.51% # Distribution of cycle latency between the first time a load is issued and its completion
system.switch_cpus.lsq0.loadToUse::70-79        12817      0.06%     89.56% # Distribution of cycle latency between the first time a load is issued and its completion
system.switch_cpus.lsq0.loadToUse::80-89        10754      0.05%     89.61% # Distribution of cycle latency between the first time a load is issued and its completion
system.switch_cpus.lsq0.loadToUse::90-99        41348      0.18%     89.79% # Distribution of cycle latency between the first time a load is issued and its completion
system.switch_cpus.lsq0.loadToUse::100-109        86339      0.37%     90.16% # Distribution of cycle latency between the first time a load is issued and its completion
system.switch_cpus.lsq0.loadToUse::110-119       167621      0.72%     90.88% # Distribution of cycle latency between the first time a load is issued and its completion
system.switch_cpus.lsq0.loadToUse::120-129        99896      0.43%     91.31% # Distribution of cycle latency between the first time a load is issued and its completion
system.switch_cpus.lsq0.loadToUse::130-139       110973      0.48%     91.79% # Distribution of cycle latency between the first time a load is issued and its completion
system.switch_cpus.lsq0.loadToUse::140-149      1532275      6.60%     98.39% # Distribution of cycle latency between the first time a load is issued and its completion
system.switch_cpus.lsq0.loadToUse::150-159        43229      0.19%     98.58% # Distribution of cycle latency between the first time a load is issued and its completion
system.switch_cpus.lsq0.loadToUse::160-169        26596      0.11%     98.69% # Distribution of cycle latency between the first time a load is issued and its completion
system.switch_cpus.lsq0.loadToUse::170-179       178542      0.77%     99.46% # Distribution of cycle latency between the first time a load is issued and its completion
system.switch_cpus.lsq0.loadToUse::180-189        13023      0.06%     99.52% # Distribution of cycle latency between the first time a load is issued and its completion
system.switch_cpus.lsq0.loadToUse::190-199         5277      0.02%     99.54% # Distribution of cycle latency between the first time a load is issued and its completion
system.switch_cpus.lsq0.loadToUse::200-209        50345      0.22%     99.76% # Distribution of cycle latency between the first time a load is issued and its completion
system.switch_cpus.lsq0.loadToUse::210-219         5551      0.02%     99.78% # Distribution of cycle latency between the first time a load is issued and its completion
system.switch_cpus.lsq0.loadToUse::220-229          673      0.00%     99.79% # Distribution of cycle latency between the first time a load is issued and its completion
system.switch_cpus.lsq0.loadToUse::230-239          579      0.00%     99.79% # Distribution of cycle latency between the first time a load is issued and its completion
system.switch_cpus.lsq0.loadToUse::240-249          582      0.00%     99.79% # Distribution of cycle latency between the first time a load is issued and its completion
system.switch_cpus.lsq0.loadToUse::250-259          619      0.00%     99.79% # Distribution of cycle latency between the first time a load is issued and its completion
system.switch_cpus.lsq0.loadToUse::260-269          669      0.00%     99.80% # Distribution of cycle latency between the first time a load is issued and its completion
system.switch_cpus.lsq0.loadToUse::270-279          718      0.00%     99.80% # Distribution of cycle latency between the first time a load is issued and its completion
system.switch_cpus.lsq0.loadToUse::280-289          588      0.00%     99.80% # Distribution of cycle latency between the first time a load is issued and its completion
system.switch_cpus.lsq0.loadToUse::290-299         1553      0.01%     99.81% # Distribution of cycle latency between the first time a load is issued and its completion
system.switch_cpus.lsq0.loadToUse::overflows        44414      0.19%    100.00% # Distribution of cycle latency between the first time a load is issued and its completion
system.switch_cpus.lsq0.loadToUse::min_value            2                       # Distribution of cycle latency between the first time a load is issued and its completion
system.switch_cpus.lsq0.loadToUse::max_value         1199                       # Distribution of cycle latency between the first time a load is issued and its completion
system.switch_cpus.lsq0.loadToUse::total     23205537                       # Distribution of cycle latency between the first time a load is issued and its completion
system.switch_cpus.mmu.dtb.readHits                 0                       # read hits (Count)
system.switch_cpus.mmu.dtb.readMisses               0                       # read misses (Count)
system.switch_cpus.mmu.dtb.readAccesses             0                       # read accesses (Count)
system.switch_cpus.mmu.dtb.writeHits                0                       # write hits (Count)
system.switch_cpus.mmu.dtb.writeMisses              0                       # write misses (Count)
system.switch_cpus.mmu.dtb.writeAccesses            0                       # write accesses (Count)
system.switch_cpus.mmu.dtb.hits                     0                       # Total TLB (read and write) hits (Count)
system.switch_cpus.mmu.dtb.misses                   0                       # Total TLB (read and write) misses (Count)
system.switch_cpus.mmu.dtb.accesses                 0                       # Total TLB (read and write) accesses (Count)
system.switch_cpus.mmu.dtb.walker.power_state.pwrStateResidencyTicks::UNDEFINED 156373555000                       # Cumulative time (in ticks) in various power states (Tick)
system.switch_cpus.mmu.itb.readHits                 0                       # read hits (Count)
system.switch_cpus.mmu.itb.readMisses               0                       # read misses (Count)
system.switch_cpus.mmu.itb.readAccesses             0                       # read accesses (Count)
system.switch_cpus.mmu.itb.writeHits                0                       # write hits (Count)
system.switch_cpus.mmu.itb.writeMisses              0                       # write misses (Count)
system.switch_cpus.mmu.itb.writeAccesses            0                       # write accesses (Count)
system.switch_cpus.mmu.itb.hits                     0                       # Total TLB (read and write) hits (Count)
system.switch_cpus.mmu.itb.misses                   0                       # Total TLB (read and write) misses (Count)
system.switch_cpus.mmu.itb.accesses                 0                       # Total TLB (read and write) accesses (Count)
system.switch_cpus.mmu.itb.walker.power_state.pwrStateResidencyTicks::UNDEFINED 156373555000                       # Cumulative time (in ticks) in various power states (Tick)
system.switch_cpus.power_state.pwrStateResidencyTicks::OFF 156373555000                       # Cumulative time (in ticks) in various power states (Tick)
system.switch_cpus.rename.squashCycles        3584403                       # Number of cycles rename is squashing (Cycle)
system.switch_cpus.rename.idleCycles         46936189                       # Number of cycles rename is idle (Cycle)
system.switch_cpus.rename.blockCycles       107144351                       # Number of cycles rename is blocking (Cycle)
system.switch_cpus.rename.serializeStallCycles        15569                       # count of cycles rename stalled for serializing inst (Cycle)
system.switch_cpus.rename.runCycles          92155832                       # Number of cycles rename is running (Cycle)
system.switch_cpus.rename.unblockCycles       7691246                       # Number of cycles rename is unblocking (Cycle)
system.switch_cpus.rename.renamedInsts      152936915                       # Number of instructions processed by rename (Count)
system.switch_cpus.rename.ROBFullEvents        140425                       # Number of times rename has blocked due to ROB full (Count)
system.switch_cpus.rename.IQFullEvents        2719693                       # Number of times rename has blocked due to IQ full (Count)
system.switch_cpus.rename.LQFullEvents        2756768                       # Number of times rename has blocked due to LQ full (Count)
system.switch_cpus.rename.SQFullEvents        1914061                       # Number of times rename has blocked due to SQ full (Count)
system.switch_cpus.rename.renamedOperands    108946830                       # Number of destination operands rename has renamed (Count)
system.switch_cpus.rename.lookups           183521827                       # Number of register rename lookups that rename has made (Count)
system.switch_cpus.rename.intLookups        183521823                       # Number of integer rename lookups (Count)
system.switch_cpus.rename.fpLookups                 4                       # Number of floating rename lookups (Count)
system.switch_cpus.rename.committedMaps      69722064                       # Number of HB maps that are committed (Count)
system.switch_cpus.rename.undoneMaps         39224766                       # Number of HB maps that are undone due to squashing (Count)
system.switch_cpus.rename.serializing             272                       # count of serializing insts renamed (Count)
system.switch_cpus.rename.tempSerializing          272                       # count of temporary serializing insts renamed (Count)
system.switch_cpus.rename.skidInsts           6998881                       # count of insts added to the skid buffer (Count)
system.switch_cpus.rob.reads                392105322                       # The number of ROB reads (Count)
system.switch_cpus.rob.writes               304297275                       # The number of ROB writes (Count)
system.switch_cpus.thread_0.numInsts         93587679                       # Number of Instructions committed (Count)
system.switch_cpus.thread_0.numOps           93587900                       # Number of Ops committed (Count)
system.switch_cpus.thread_0.numMemRefs              0                       # Number of Memory References (Count)
system.tol2bus.transDist::ReadResp            1219212                       # Transaction distribution (Count)
system.tol2bus.transDist::WritebackDirty       152015                       # Transaction distribution (Count)
system.tol2bus.transDist::WritebackClean        28946                       # Transaction distribution (Count)
system.tol2bus.transDist::CleanEvict          2239316                       # Transaction distribution (Count)
system.tol2bus.transDist::ReadExReq             20099                       # Transaction distribution (Count)
system.tol2bus.transDist::ReadExResp            20099                       # Transaction distribution (Count)
system.tol2bus.transDist::ReadCleanReq          28950                       # Transaction distribution (Count)
system.tol2bus.transDist::ReadSharedReq       1190263                       # Transaction distribution (Count)
system.tol2bus.transDist::InvalidateReq             8                       # Transaction distribution (Count)
system.tol2bus.transDist::InvalidateResp            8                       # Transaction distribution (Count)
system.tol2bus.pktCount_system.cpu.icache.mem_side_port::system.l2.cpu_side_port        86845                       # Packet count per connected requestor and responder (Count)
system.tol2bus.pktCount_system.cpu.dcache.mem_side_port::system.l2.cpu_side_port      3631110                       # Packet count per connected requestor and responder (Count)
system.tol2bus.pktCount::total                3717955                       # Packet count per connected requestor and responder (Count)
system.tol2bus.pktSize_system.cpu.icache.mem_side_port::system.l2.cpu_side_port      3705280                       # Cumulative packet size per connected requestor and responder (Byte)
system.tol2bus.pktSize_system.cpu.dcache.mem_side_port::system.l2.cpu_side_port     82422912                       # Cumulative packet size per connected requestor and responder (Byte)
system.tol2bus.pktSize::total                86128192                       # Cumulative packet size per connected requestor and responder (Byte)
system.tol2bus.snoops                         1180961                       # Total snoops (Count)
system.tol2bus.snoopTraffic                   4769216                       # Total snoop traffic (Byte)
system.tol2bus.snoopFanout::samples           2420281                       # Request fanout histogram
system.tol2bus.snoopFanout::mean             0.000397                       # Request fanout histogram
system.tol2bus.snoopFanout::stdev            0.019933                       # Request fanout histogram
system.tol2bus.snoopFanout::underflows              0      0.00%      0.00% # Request fanout histogram
system.tol2bus.snoopFanout::0                 2419319     99.96%     99.96% # Request fanout histogram
system.tol2bus.snoopFanout::1                     962      0.04%    100.00% # Request fanout histogram
system.tol2bus.snoopFanout::2                       0      0.00%    100.00% # Request fanout histogram
system.tol2bus.snoopFanout::3                       0      0.00%    100.00% # Request fanout histogram
system.tol2bus.snoopFanout::4                       0      0.00%    100.00% # Request fanout histogram
system.tol2bus.snoopFanout::overflows               0      0.00%    100.00% # Request fanout histogram
system.tol2bus.snoopFanout::min_value               0                       # Request fanout histogram
system.tol2bus.snoopFanout::max_value               1                       # Request fanout histogram
system.tol2bus.snoopFanout::total             2420281                       # Request fanout histogram
system.tol2bus.power_state.pwrStateResidencyTicks::UNDEFINED 156373555000                       # Cumulative time (in ticks) in various power states (Tick)
system.tol2bus.reqLayer0.occupancy         1345760000                       # Layer occupancy (ticks) (Tick)
system.tol2bus.reqLayer0.utilization              0.0                       # Layer utilization (Ratio)
system.tol2bus.respLayer0.occupancy          43424997                       # Layer occupancy (ticks) (Tick)
system.tol2bus.respLayer0.utilization             0.0                       # Layer utilization (Ratio)
system.tol2bus.respLayer1.occupancy        1815563966                       # Layer occupancy (ticks) (Tick)
system.tol2bus.respLayer1.utilization             0.0                       # Layer utilization (Ratio)
system.tol2bus.snoop_filter.totRequests       2478636                       # Total number of requests made to the snoop filter. (Count)
system.tol2bus.snoop_filter.hitSingleRequests      1239316                       # Number of requests hitting in the snoop filter with a single holder of the requested data. (Count)
system.tol2bus.snoop_filter.hitMultiRequests            8                       # Number of requests hitting in the snoop filter with multiple (>1) holders of the requested data. (Count)
system.tol2bus.snoop_filter.totSnoops             954                       # Total number of snoops made to the snoop filter. (Count)
system.tol2bus.snoop_filter.hitSingleSnoops          954                       # Number of snoops hitting in the snoop filter with a single holder of the requested data. (Count)
system.tol2bus.snoop_filter.hitMultiSnoops            0                       # Number of snoops hitting in the snoop filter with multiple (>1) holders of the requested data. (Count)
system.voltage_domain.voltage                       1                       # Voltage in Volts (Volt)
system.workload.inst.arm                            0                       # number of arm instructions executed (Count)
system.workload.inst.quiesce                        0                       # number of quiesce instructions executed (Count)

---------- End Simulation Statistics   ----------
