
---------- Begin Simulation Statistics ----------
simSeconds                                   0.072944                       # Number of seconds simulated (Second)
simTicks                                  72944439500                       # Number of ticks simulated (Tick)
finalTick                                101703815000                       # Number of ticks from beginning of simulation (restored from checkpoints and never reset) (Tick)
simFreq                                  1000000000000                       # The number of ticks per simulated second ((Tick/Second))
hostSeconds                                    373.92                       # Real time elapsed on the host (Second)
hostTickRate                                195079385                       # The number of ticks simulated per host second (ticks/s) ((Tick/Second))
hostMemory                                    8606960                       # Number of bytes of host memory used (Byte)
simInsts                                    111687959                       # Number of instructions simulated (Count)
simOps                                      111705051                       # Number of ops (including micro ops) simulated (Count)
hostInstRate                                   298693                       # Simulator instruction rate (inst/s) ((Count/Second))
hostOpRate                                     298739                       # Simulator op (including micro ops) rate (op/s) ((Count/Second))
system.clk_domain.clock                          1000                       # Clock period in ticks (Tick)
system.cpu.numCycles                                0                       # Number of cpu cycles simulated (Cycle)
system.cpu.numWorkItemsStarted                      0                       # Number of work items this cpu started (Count)
system.cpu.numWorkItemsCompleted                    0                       # Number of work items this cpu completed (Count)
system.cpu.dcache.demandHits::switch_cpus.data     29814749                       # number of demand (read+write) hits (Count)
system.cpu.dcache.demandHits::total          29814749                       # number of demand (read+write) hits (Count)
system.cpu.dcache.overallHits::switch_cpus.data     29814749                       # number of overall hits (Count)
system.cpu.dcache.overallHits::total         29814749                       # number of overall hits (Count)
system.cpu.dcache.demandMisses::switch_cpus.data      1002979                       # number of demand (read+write) misses (Count)
system.cpu.dcache.demandMisses::total         1002979                       # number of demand (read+write) misses (Count)
system.cpu.dcache.overallMisses::switch_cpus.data      1002979                       # number of overall misses (Count)
system.cpu.dcache.overallMisses::total        1002979                       # number of overall misses (Count)
system.cpu.dcache.demandMissLatency::switch_cpus.data  65514975381                       # number of demand (read+write) miss ticks (Tick)
system.cpu.dcache.demandMissLatency::total  65514975381                       # number of demand (read+write) miss ticks (Tick)
system.cpu.dcache.overallMissLatency::switch_cpus.data  65514975381                       # number of overall miss ticks (Tick)
system.cpu.dcache.overallMissLatency::total  65514975381                       # number of overall miss ticks (Tick)
system.cpu.dcache.demandAccesses::switch_cpus.data     30817728                       # number of demand (read+write) accesses (Count)
system.cpu.dcache.demandAccesses::total      30817728                       # number of demand (read+write) accesses (Count)
system.cpu.dcache.overallAccesses::switch_cpus.data     30817728                       # number of overall (read+write) accesses (Count)
system.cpu.dcache.overallAccesses::total     30817728                       # number of overall (read+write) accesses (Count)
system.cpu.dcache.demandMissRate::switch_cpus.data     0.032546                       # miss rate for demand accesses (Ratio)
system.cpu.dcache.demandMissRate::total      0.032546                       # miss rate for demand accesses (Ratio)
system.cpu.dcache.overallMissRate::switch_cpus.data     0.032546                       # miss rate for overall accesses (Ratio)
system.cpu.dcache.overallMissRate::total     0.032546                       # miss rate for overall accesses (Ratio)
system.cpu.dcache.demandAvgMissLatency::switch_cpus.data 65320.385951                       # average overall miss latency ((Cycle/Count))
system.cpu.dcache.demandAvgMissLatency::total 65320.385951                       # average overall miss latency ((Cycle/Count))
system.cpu.dcache.overallAvgMissLatency::switch_cpus.data 65320.385951                       # average overall miss latency ((Cycle/Count))
system.cpu.dcache.overallAvgMissLatency::total 65320.385951                       # average overall miss latency ((Cycle/Count))
system.cpu.dcache.blockedCycles::no_mshrs       208941                       # number of cycles access was blocked (Cycle)
system.cpu.dcache.blockedCycles::no_targets          276                       # number of cycles access was blocked (Cycle)
system.cpu.dcache.blockedCauses::no_mshrs         3636                       # number of times access was blocked (Count)
system.cpu.dcache.blockedCauses::no_targets            6                       # number of times access was blocked (Count)
system.cpu.dcache.avgBlocked::no_mshrs      57.464521                       # average number of cycles each access was blocked ((Cycle/Count))
system.cpu.dcache.avgBlocked::no_targets           46                       # average number of cycles each access was blocked ((Cycle/Count))
system.cpu.dcache.writebacks::writebacks        25542                       # number of writebacks (Count)
system.cpu.dcache.writebacks::total             25542                       # number of writebacks (Count)
system.cpu.dcache.demandMshrHits::switch_cpus.data       570531                       # number of demand (read+write) MSHR hits (Count)
system.cpu.dcache.demandMshrHits::total        570531                       # number of demand (read+write) MSHR hits (Count)
system.cpu.dcache.overallMshrHits::switch_cpus.data       570531                       # number of overall MSHR hits (Count)
system.cpu.dcache.overallMshrHits::total       570531                       # number of overall MSHR hits (Count)
system.cpu.dcache.demandMshrMisses::switch_cpus.data       432448                       # number of demand (read+write) MSHR misses (Count)
system.cpu.dcache.demandMshrMisses::total       432448                       # number of demand (read+write) MSHR misses (Count)
system.cpu.dcache.overallMshrMisses::switch_cpus.data       432448                       # number of overall MSHR misses (Count)
system.cpu.dcache.overallMshrMisses::total       432448                       # number of overall MSHR misses (Count)
system.cpu.dcache.demandMshrMissLatency::switch_cpus.data  32653526752                       # number of demand (read+write) MSHR miss ticks (Tick)
system.cpu.dcache.demandMshrMissLatency::total  32653526752                       # number of demand (read+write) MSHR miss ticks (Tick)
system.cpu.dcache.overallMshrMissLatency::switch_cpus.data  32653526752                       # number of overall MSHR miss ticks (Tick)
system.cpu.dcache.overallMshrMissLatency::total  32653526752                       # number of overall MSHR miss ticks (Tick)
system.cpu.dcache.demandMshrMissRate::switch_cpus.data     0.014032                       # mshr miss ratio for demand accesses (Ratio)
system.cpu.dcache.demandMshrMissRate::total     0.014032                       # mshr miss ratio for demand accesses (Ratio)
system.cpu.dcache.overallMshrMissRate::switch_cpus.data     0.014032                       # mshr miss ratio for overall accesses (Ratio)
system.cpu.dcache.overallMshrMissRate::total     0.014032                       # mshr miss ratio for overall accesses (Ratio)
system.cpu.dcache.demandAvgMshrMissLatency::switch_cpus.data 75508.562306                       # average overall mshr miss latency ((Cycle/Count))
system.cpu.dcache.demandAvgMshrMissLatency::total 75508.562306                       # average overall mshr miss latency ((Cycle/Count))
system.cpu.dcache.overallAvgMshrMissLatency::switch_cpus.data 75508.562306                       # average overall mshr miss latency ((Cycle/Count))
system.cpu.dcache.overallAvgMshrMissLatency::total 75508.562306                       # average overall mshr miss latency ((Cycle/Count))
system.cpu.dcache.replacements                 432450                       # number of replacements (Count)
system.cpu.dcache.LoadLockedReq.hits::switch_cpus.data           60                       # number of LoadLockedReq hits (Count)
system.cpu.dcache.LoadLockedReq.hits::total           60                       # number of LoadLockedReq hits (Count)
system.cpu.dcache.LoadLockedReq.misses::switch_cpus.data            6                       # number of LoadLockedReq misses (Count)
system.cpu.dcache.LoadLockedReq.misses::total            6                       # number of LoadLockedReq misses (Count)
system.cpu.dcache.LoadLockedReq.missLatency::switch_cpus.data       523000                       # number of LoadLockedReq miss ticks (Tick)
system.cpu.dcache.LoadLockedReq.missLatency::total       523000                       # number of LoadLockedReq miss ticks (Tick)
system.cpu.dcache.LoadLockedReq.accesses::switch_cpus.data           66                       # number of LoadLockedReq accesses(hits+misses) (Count)
system.cpu.dcache.LoadLockedReq.accesses::total           66                       # number of LoadLockedReq accesses(hits+misses) (Count)
system.cpu.dcache.LoadLockedReq.missRate::switch_cpus.data     0.090909                       # miss rate for LoadLockedReq accesses (Ratio)
system.cpu.dcache.LoadLockedReq.missRate::total     0.090909                       # miss rate for LoadLockedReq accesses (Ratio)
system.cpu.dcache.LoadLockedReq.avgMissLatency::switch_cpus.data 87166.666667                       # average LoadLockedReq miss latency ((Tick/Count))
system.cpu.dcache.LoadLockedReq.avgMissLatency::total 87166.666667                       # average LoadLockedReq miss latency ((Tick/Count))
system.cpu.dcache.LoadLockedReq.mshrHits::switch_cpus.data            4                       # number of LoadLockedReq MSHR hits (Count)
system.cpu.dcache.LoadLockedReq.mshrHits::total            4                       # number of LoadLockedReq MSHR hits (Count)
system.cpu.dcache.LoadLockedReq.mshrMisses::switch_cpus.data            2                       # number of LoadLockedReq MSHR misses (Count)
system.cpu.dcache.LoadLockedReq.mshrMisses::total            2                       # number of LoadLockedReq MSHR misses (Count)
system.cpu.dcache.LoadLockedReq.mshrMissLatency::switch_cpus.data       173000                       # number of LoadLockedReq MSHR miss ticks (Tick)
system.cpu.dcache.LoadLockedReq.mshrMissLatency::total       173000                       # number of LoadLockedReq MSHR miss ticks (Tick)
system.cpu.dcache.LoadLockedReq.mshrMissRate::switch_cpus.data     0.030303                       # mshr miss rate for LoadLockedReq accesses (Ratio)
system.cpu.dcache.LoadLockedReq.mshrMissRate::total     0.030303                       # mshr miss rate for LoadLockedReq accesses (Ratio)
system.cpu.dcache.LoadLockedReq.avgMshrMissLatency::switch_cpus.data        86500                       # average LoadLockedReq mshr miss latency ((Tick/Count))
system.cpu.dcache.LoadLockedReq.avgMshrMissLatency::total        86500                       # average LoadLockedReq mshr miss latency ((Tick/Count))
system.cpu.dcache.ReadReq.hits::switch_cpus.data     25130558                       # number of ReadReq hits (Count)
system.cpu.dcache.ReadReq.hits::total        25130558                       # number of ReadReq hits (Count)
system.cpu.dcache.ReadReq.misses::switch_cpus.data       997142                       # number of ReadReq misses (Count)
system.cpu.dcache.ReadReq.misses::total        997142                       # number of ReadReq misses (Count)
system.cpu.dcache.ReadReq.missLatency::switch_cpus.data  65287175000                       # number of ReadReq miss ticks (Tick)
system.cpu.dcache.ReadReq.missLatency::total  65287175000                       # number of ReadReq miss ticks (Tick)
system.cpu.dcache.ReadReq.accesses::switch_cpus.data     26127700                       # number of ReadReq accesses(hits+misses) (Count)
system.cpu.dcache.ReadReq.accesses::total     26127700                       # number of ReadReq accesses(hits+misses) (Count)
system.cpu.dcache.ReadReq.missRate::switch_cpus.data     0.038164                       # miss rate for ReadReq accesses (Ratio)
system.cpu.dcache.ReadReq.missRate::total     0.038164                       # miss rate for ReadReq accesses (Ratio)
system.cpu.dcache.ReadReq.avgMissLatency::switch_cpus.data 65474.300551                       # average ReadReq miss latency ((Tick/Count))
system.cpu.dcache.ReadReq.avgMissLatency::total 65474.300551                       # average ReadReq miss latency ((Tick/Count))
system.cpu.dcache.ReadReq.mshrHits::switch_cpus.data       566112                       # number of ReadReq MSHR hits (Count)
system.cpu.dcache.ReadReq.mshrHits::total       566112                       # number of ReadReq MSHR hits (Count)
system.cpu.dcache.ReadReq.mshrMisses::switch_cpus.data       431030                       # number of ReadReq MSHR misses (Count)
system.cpu.dcache.ReadReq.mshrMisses::total       431030                       # number of ReadReq MSHR misses (Count)
system.cpu.dcache.ReadReq.mshrMissLatency::switch_cpus.data  32575873000                       # number of ReadReq MSHR miss ticks (Tick)
system.cpu.dcache.ReadReq.mshrMissLatency::total  32575873000                       # number of ReadReq MSHR miss ticks (Tick)
system.cpu.dcache.ReadReq.mshrMissRate::switch_cpus.data     0.016497                       # mshr miss rate for ReadReq accesses (Ratio)
system.cpu.dcache.ReadReq.mshrMissRate::total     0.016497                       # mshr miss rate for ReadReq accesses (Ratio)
system.cpu.dcache.ReadReq.avgMshrMissLatency::switch_cpus.data 75576.811359                       # average ReadReq mshr miss latency ((Tick/Count))
system.cpu.dcache.ReadReq.avgMshrMissLatency::total 75576.811359                       # average ReadReq mshr miss latency ((Tick/Count))
system.cpu.dcache.StoreCondReq.hits::switch_cpus.data           56                       # number of StoreCondReq hits (Count)
system.cpu.dcache.StoreCondReq.hits::total           56                       # number of StoreCondReq hits (Count)
system.cpu.dcache.StoreCondReq.accesses::switch_cpus.data           56                       # number of StoreCondReq accesses(hits+misses) (Count)
system.cpu.dcache.StoreCondReq.accesses::total           56                       # number of StoreCondReq accesses(hits+misses) (Count)
system.cpu.dcache.SwapReq.hits::switch_cpus.data           58                       # number of SwapReq hits (Count)
system.cpu.dcache.SwapReq.hits::total              58                       # number of SwapReq hits (Count)
system.cpu.dcache.SwapReq.accesses::switch_cpus.data           58                       # number of SwapReq accesses(hits+misses) (Count)
system.cpu.dcache.SwapReq.accesses::total           58                       # number of SwapReq accesses(hits+misses) (Count)
system.cpu.dcache.WriteReq.hits::switch_cpus.data      4684191                       # number of WriteReq hits (Count)
system.cpu.dcache.WriteReq.hits::total        4684191                       # number of WriteReq hits (Count)
system.cpu.dcache.WriteReq.misses::switch_cpus.data         5837                       # number of WriteReq misses (Count)
system.cpu.dcache.WriteReq.misses::total         5837                       # number of WriteReq misses (Count)
system.cpu.dcache.WriteReq.missLatency::switch_cpus.data    227800381                       # number of WriteReq miss ticks (Tick)
system.cpu.dcache.WriteReq.missLatency::total    227800381                       # number of WriteReq miss ticks (Tick)
system.cpu.dcache.WriteReq.accesses::switch_cpus.data      4690028                       # number of WriteReq accesses(hits+misses) (Count)
system.cpu.dcache.WriteReq.accesses::total      4690028                       # number of WriteReq accesses(hits+misses) (Count)
system.cpu.dcache.WriteReq.missRate::switch_cpus.data     0.001245                       # miss rate for WriteReq accesses (Ratio)
system.cpu.dcache.WriteReq.missRate::total     0.001245                       # miss rate for WriteReq accesses (Ratio)
system.cpu.dcache.WriteReq.avgMissLatency::switch_cpus.data 39026.962652                       # average WriteReq miss latency ((Tick/Count))
system.cpu.dcache.WriteReq.avgMissLatency::total 39026.962652                       # average WriteReq miss latency ((Tick/Count))
system.cpu.dcache.WriteReq.mshrHits::switch_cpus.data         4419                       # number of WriteReq MSHR hits (Count)
system.cpu.dcache.WriteReq.mshrHits::total         4419                       # number of WriteReq MSHR hits (Count)
system.cpu.dcache.WriteReq.mshrMisses::switch_cpus.data         1418                       # number of WriteReq MSHR misses (Count)
system.cpu.dcache.WriteReq.mshrMisses::total         1418                       # number of WriteReq MSHR misses (Count)
system.cpu.dcache.WriteReq.mshrMissLatency::switch_cpus.data     77653752                       # number of WriteReq MSHR miss ticks (Tick)
system.cpu.dcache.WriteReq.mshrMissLatency::total     77653752                       # number of WriteReq MSHR miss ticks (Tick)
system.cpu.dcache.WriteReq.mshrMissRate::switch_cpus.data     0.000302                       # mshr miss rate for WriteReq accesses (Ratio)
system.cpu.dcache.WriteReq.mshrMissRate::total     0.000302                       # mshr miss rate for WriteReq accesses (Ratio)
system.cpu.dcache.WriteReq.avgMshrMissLatency::switch_cpus.data 54762.871650                       # average WriteReq mshr miss latency ((Tick/Count))
system.cpu.dcache.WriteReq.avgMshrMissLatency::total 54762.871650                       # average WriteReq mshr miss latency ((Tick/Count))
system.cpu.dcache.power_state.pwrStateResidencyTicks::UNDEFINED 101703815000                       # Cumulative time (in ticks) in various power states (Tick)
system.cpu.dcache.tags.tagsInUse                 1024                       # Average ticks per tags in use ((Tick/Count))
system.cpu.dcache.tags.totalRefs             36165225                       # Total number of references to valid blocks. (Count)
system.cpu.dcache.tags.sampledRefs             433474                       # Sample count of references to valid blocks. (Count)
system.cpu.dcache.tags.avgRefs              83.431129                       # Average number of references to valid blocks. ((Count/Count))
system.cpu.dcache.tags.warmupTick                   0                       # The tick when the warmup percentage was hit. (Tick)
system.cpu.dcache.tags.occupancies::cpu.data     0.249451                       # Average occupied blocks per tick, per requestor ((Count/Tick))
system.cpu.dcache.tags.occupancies::switch_cpus.data  1023.750549                       # Average occupied blocks per tick, per requestor ((Count/Tick))
system.cpu.dcache.tags.avgOccs::cpu.data     0.000244                       # Average percentage of cache occupancy ((Ratio/Tick))
system.cpu.dcache.tags.avgOccs::switch_cpus.data     0.999756                       # Average percentage of cache occupancy ((Ratio/Tick))
system.cpu.dcache.tags.avgOccs::total               1                       # Average percentage of cache occupancy ((Ratio/Tick))
system.cpu.dcache.tags.occupanciesTaskId::1024         1024                       # Occupied blocks per task id (Count)
system.cpu.dcache.tags.ageTaskId_1024::0           77                       # Occupied blocks per task id, per block age (Count)
system.cpu.dcache.tags.ageTaskId_1024::1          520                       # Occupied blocks per task id, per block age (Count)
system.cpu.dcache.tags.ageTaskId_1024::2          383                       # Occupied blocks per task id, per block age (Count)
system.cpu.dcache.tags.ageTaskId_1024::3            6                       # Occupied blocks per task id, per block age (Count)
system.cpu.dcache.tags.ageTaskId_1024::4           38                       # Occupied blocks per task id, per block age (Count)
system.cpu.dcache.tags.ratioOccsTaskId::1024            1                       # Ratio of occupied blocks and all blocks, per task id (Ratio)
system.cpu.dcache.tags.tagAccesses          246975714                       # Number of tag accesses (Count)
system.cpu.dcache.tags.dataAccesses         246975714                       # Number of data accesses (Count)
system.cpu.dcache.tags.power_state.pwrStateResidencyTicks::UNDEFINED 101703815000                       # Cumulative time (in ticks) in various power states (Tick)
system.cpu.dtb_walker_cache.blockedCycles::no_mshrs            0                       # number of cycles access was blocked (Cycle)
system.cpu.dtb_walker_cache.blockedCycles::no_targets            0                       # number of cycles access was blocked (Cycle)
system.cpu.dtb_walker_cache.blockedCauses::no_mshrs            0                       # number of times access was blocked (Count)
system.cpu.dtb_walker_cache.blockedCauses::no_targets            0                       # number of times access was blocked (Count)
system.cpu.dtb_walker_cache.avgBlocked::no_mshrs          nan                       # average number of cycles each access was blocked ((Cycle/Count))
system.cpu.dtb_walker_cache.avgBlocked::no_targets          nan                       # average number of cycles each access was blocked ((Cycle/Count))
system.cpu.dtb_walker_cache.replacements            0                       # number of replacements (Count)
system.cpu.dtb_walker_cache.power_state.pwrStateResidencyTicks::UNDEFINED 101703815000                       # Cumulative time (in ticks) in various power states (Tick)
system.cpu.dtb_walker_cache.tags.tagsInUse            0                       # Average ticks per tags in use ((Tick/Count))
system.cpu.dtb_walker_cache.tags.totalRefs            0                       # Total number of references to valid blocks. (Count)
system.cpu.dtb_walker_cache.tags.sampledRefs            0                       # Sample count of references to valid blocks. (Count)
system.cpu.dtb_walker_cache.tags.avgRefs          nan                       # Average number of references to valid blocks. ((Count/Count))
system.cpu.dtb_walker_cache.tags.warmupTick            0                       # The tick when the warmup percentage was hit. (Tick)
system.cpu.dtb_walker_cache.tags.tagAccesses            0                       # Number of tag accesses (Count)
system.cpu.dtb_walker_cache.tags.dataAccesses            0                       # Number of data accesses (Count)
system.cpu.dtb_walker_cache.tags.power_state.pwrStateResidencyTicks::UNDEFINED 101703815000                       # Cumulative time (in ticks) in various power states (Tick)
system.cpu.exec_context.thread_0.numInsts            0                       # Number of instructions committed (Count)
system.cpu.exec_context.thread_0.numOps             0                       # Number of ops (including micro ops) committed (Count)
system.cpu.exec_context.thread_0.numCmovInsts            0                       # Number of cmov instructions executed (Count)
system.cpu.exec_context.thread_0.numIntAluAccesses            0                       # Number of integer alu accesses (Count)
system.cpu.exec_context.thread_0.numFpAluAccesses            0                       # Number of float alu accesses (Count)
system.cpu.exec_context.thread_0.numVecAluAccesses            0                       # Number of vector alu accesses (Count)
system.cpu.exec_context.thread_0.numCallsReturns            0                       # Number of times a function call or return occured (Count)
system.cpu.exec_context.thread_0.numCondCtrlInsts            0                       # Number of instructions that are conditional controls (Count)
system.cpu.exec_context.thread_0.numIntInsts            0                       # Number of integer instructions (Count)
system.cpu.exec_context.thread_0.numFpInsts            0                       # Number of float instructions (Count)
system.cpu.exec_context.thread_0.numVecInsts            0                       # Number of vector instructions (Count)
system.cpu.exec_context.thread_0.numIntRegReads            0                       # Number of times the integer registers were read (Count)
system.cpu.exec_context.thread_0.numIntRegWrites            0                       # Number of times the integer registers were written (Count)
system.cpu.exec_context.thread_0.numFpRegReads            0                       # Number of times the floating registers were read (Count)
system.cpu.exec_context.thread_0.numFpRegWrites            0                       # Number of times the floating registers were written (Count)
system.cpu.exec_context.thread_0.numVecRegReads            0                       # Number of times the vector registers were read (Count)
system.cpu.exec_context.thread_0.numVecRegWrites            0                       # Number of times the vector registers were written (Count)
system.cpu.exec_context.thread_0.numVecPredRegReads            0                       # Number of times the predicate registers were read (Count)
system.cpu.exec_context.thread_0.numVecPredRegWrites            0                       # Number of times the predicate registers were written (Count)
system.cpu.exec_context.thread_0.numMemRefs            0                       # Number of memory refs (Count)
system.cpu.exec_context.thread_0.numLoadInsts            0                       # Number of load instructions (Count)
system.cpu.exec_context.thread_0.numStoreInsts            0                       # Number of store instructions (Count)
system.cpu.exec_context.thread_0.numIdleCycles            0                       # Number of idle cycles (Cycle)
system.cpu.exec_context.thread_0.numBusyCycles            0                       # Number of busy cycles (Cycle)
system.cpu.exec_context.thread_0.notIdleFraction            1                       # Percentage of non-idle cycles (Ratio)
system.cpu.exec_context.thread_0.idleFraction            0                       # Percentage of idle cycles (Ratio)
system.cpu.exec_context.thread_0.statExecutedInstType::No_OpClass            0                       # Class of executed instruction. (Count)
system.cpu.exec_context.thread_0.statExecutedInstType::IntAlu            0                       # Class of executed instruction. (Count)
system.cpu.exec_context.thread_0.statExecutedInstType::IntMult            0                       # Class of executed instruction. (Count)
system.cpu.exec_context.thread_0.statExecutedInstType::IntDiv            0                       # Class of executed instruction. (Count)
system.cpu.exec_context.thread_0.statExecutedInstType::FloatAdd            0                       # Class of executed instruction. (Count)
system.cpu.exec_context.thread_0.statExecutedInstType::FloatCmp            0                       # Class of executed instruction. (Count)
system.cpu.exec_context.thread_0.statExecutedInstType::FloatCvt            0                       # Class of executed instruction. (Count)
system.cpu.exec_context.thread_0.statExecutedInstType::FloatMult            0                       # Class of executed instruction. (Count)
system.cpu.exec_context.thread_0.statExecutedInstType::FloatMultAcc            0                       # Class of executed instruction. (Count)
system.cpu.exec_context.thread_0.statExecutedInstType::FloatDiv            0                       # Class of executed instruction. (Count)
system.cpu.exec_context.thread_0.statExecutedInstType::FloatMisc            0                       # Class of executed instruction. (Count)
system.cpu.exec_context.thread_0.statExecutedInstType::FloatSqrt            0                       # Class of executed instruction. (Count)
system.cpu.exec_context.thread_0.statExecutedInstType::SimdAdd            0                       # Class of executed instruction. (Count)
system.cpu.exec_context.thread_0.statExecutedInstType::SimdAddAcc            0                       # Class of executed instruction. (Count)
system.cpu.exec_context.thread_0.statExecutedInstType::SimdAlu            0                       # Class of executed instruction. (Count)
system.cpu.exec_context.thread_0.statExecutedInstType::SimdCmp            0                       # Class of executed instruction. (Count)
system.cpu.exec_context.thread_0.statExecutedInstType::SimdCvt            0                       # Class of executed instruction. (Count)
system.cpu.exec_context.thread_0.statExecutedInstType::SimdMisc            0                       # Class of executed instruction. (Count)
system.cpu.exec_context.thread_0.statExecutedInstType::SimdMult            0                       # Class of executed instruction. (Count)
system.cpu.exec_context.thread_0.statExecutedInstType::SimdMultAcc            0                       # Class of executed instruction. (Count)
system.cpu.exec_context.thread_0.statExecutedInstType::SimdShift            0                       # Class of executed instruction. (Count)
system.cpu.exec_context.thread_0.statExecutedInstType::SimdShiftAcc            0                       # Class of executed instruction. (Count)
system.cpu.exec_context.thread_0.statExecutedInstType::SimdDiv            0                       # Class of executed instruction. (Count)
system.cpu.exec_context.thread_0.statExecutedInstType::SimdSqrt            0                       # Class of executed instruction. (Count)
system.cpu.exec_context.thread_0.statExecutedInstType::SimdFloatAdd            0                       # Class of executed instruction. (Count)
system.cpu.exec_context.thread_0.statExecutedInstType::SimdFloatAlu            0                       # Class of executed instruction. (Count)
system.cpu.exec_context.thread_0.statExecutedInstType::SimdFloatCmp            0                       # Class of executed instruction. (Count)
system.cpu.exec_context.thread_0.statExecutedInstType::SimdFloatCvt            0                       # Class of executed instruction. (Count)
system.cpu.exec_context.thread_0.statExecutedInstType::SimdFloatDiv            0                       # Class of executed instruction. (Count)
system.cpu.exec_context.thread_0.statExecutedInstType::SimdFloatMisc            0                       # Class of executed instruction. (Count)
system.cpu.exec_context.thread_0.statExecutedInstType::SimdFloatMult            0                       # Class of executed instruction. (Count)
system.cpu.exec_context.thread_0.statExecutedInstType::SimdFloatMultAcc            0                       # Class of executed instruction. (Count)
system.cpu.exec_context.thread_0.statExecutedInstType::SimdFloatSqrt            0                       # Class of executed instruction. (Count)
system.cpu.exec_context.thread_0.statExecutedInstType::SimdReduceAdd            0                       # Class of executed instruction. (Count)
system.cpu.exec_context.thread_0.statExecutedInstType::SimdReduceAlu            0                       # Class of executed instruction. (Count)
system.cpu.exec_context.thread_0.statExecutedInstType::SimdReduceCmp            0                       # Class of executed instruction. (Count)
system.cpu.exec_context.thread_0.statExecutedInstType::SimdFloatReduceAdd            0                       # Class of executed instruction. (Count)
system.cpu.exec_context.thread_0.statExecutedInstType::SimdFloatReduceCmp            0                       # Class of executed instruction. (Count)
system.cpu.exec_context.thread_0.statExecutedInstType::SimdAes            0                       # Class of executed instruction. (Count)
system.cpu.exec_context.thread_0.statExecutedInstType::SimdAesMix            0                       # Class of executed instruction. (Count)
system.cpu.exec_context.thread_0.statExecutedInstType::SimdSha1Hash            0                       # Class of executed instruction. (Count)
system.cpu.exec_context.thread_0.statExecutedInstType::SimdSha1Hash2            0                       # Class of executed instruction. (Count)
system.cpu.exec_context.thread_0.statExecutedInstType::SimdSha256Hash            0                       # Class of executed instruction. (Count)
system.cpu.exec_context.thread_0.statExecutedInstType::SimdSha256Hash2            0                       # Class of executed instruction. (Count)
system.cpu.exec_context.thread_0.statExecutedInstType::SimdShaSigma2            0                       # Class of executed instruction. (Count)
system.cpu.exec_context.thread_0.statExecutedInstType::SimdShaSigma3            0                       # Class of executed instruction. (Count)
system.cpu.exec_context.thread_0.statExecutedInstType::SimdPredAlu            0                       # Class of executed instruction. (Count)
system.cpu.exec_context.thread_0.statExecutedInstType::MemRead            0                       # Class of executed instruction. (Count)
system.cpu.exec_context.thread_0.statExecutedInstType::MemWrite            0                       # Class of executed instruction. (Count)
system.cpu.exec_context.thread_0.statExecutedInstType::FloatMemRead            0                       # Class of executed instruction. (Count)
system.cpu.exec_context.thread_0.statExecutedInstType::FloatMemWrite            0                       # Class of executed instruction. (Count)
system.cpu.exec_context.thread_0.statExecutedInstType::IprAccess            0                       # Class of executed instruction. (Count)
system.cpu.exec_context.thread_0.statExecutedInstType::InstPrefetch            0                       # Class of executed instruction. (Count)
system.cpu.exec_context.thread_0.statExecutedInstType::total            0                       # Class of executed instruction. (Count)
system.cpu.icache.demandHits::switch_cpus.inst     29443958                       # number of demand (read+write) hits (Count)
system.cpu.icache.demandHits::total          29443958                       # number of demand (read+write) hits (Count)
system.cpu.icache.overallHits::switch_cpus.inst     29443958                       # number of overall hits (Count)
system.cpu.icache.overallHits::total         29443958                       # number of overall hits (Count)
system.cpu.icache.demandMisses::switch_cpus.inst          532                       # number of demand (read+write) misses (Count)
system.cpu.icache.demandMisses::total             532                       # number of demand (read+write) misses (Count)
system.cpu.icache.overallMisses::switch_cpus.inst          532                       # number of overall misses (Count)
system.cpu.icache.overallMisses::total            532                       # number of overall misses (Count)
system.cpu.icache.demandMissLatency::switch_cpus.inst     33758000                       # number of demand (read+write) miss ticks (Tick)
system.cpu.icache.demandMissLatency::total     33758000                       # number of demand (read+write) miss ticks (Tick)
system.cpu.icache.overallMissLatency::switch_cpus.inst     33758000                       # number of overall miss ticks (Tick)
system.cpu.icache.overallMissLatency::total     33758000                       # number of overall miss ticks (Tick)
system.cpu.icache.demandAccesses::switch_cpus.inst     29444490                       # number of demand (read+write) accesses (Count)
system.cpu.icache.demandAccesses::total      29444490                       # number of demand (read+write) accesses (Count)
system.cpu.icache.overallAccesses::switch_cpus.inst     29444490                       # number of overall (read+write) accesses (Count)
system.cpu.icache.overallAccesses::total     29444490                       # number of overall (read+write) accesses (Count)
system.cpu.icache.demandMissRate::switch_cpus.inst     0.000018                       # miss rate for demand accesses (Ratio)
system.cpu.icache.demandMissRate::total      0.000018                       # miss rate for demand accesses (Ratio)
system.cpu.icache.overallMissRate::switch_cpus.inst     0.000018                       # miss rate for overall accesses (Ratio)
system.cpu.icache.overallMissRate::total     0.000018                       # miss rate for overall accesses (Ratio)
system.cpu.icache.demandAvgMissLatency::switch_cpus.inst 63454.887218                       # average overall miss latency ((Cycle/Count))
system.cpu.icache.demandAvgMissLatency::total 63454.887218                       # average overall miss latency ((Cycle/Count))
system.cpu.icache.overallAvgMissLatency::switch_cpus.inst 63454.887218                       # average overall miss latency ((Cycle/Count))
system.cpu.icache.overallAvgMissLatency::total 63454.887218                       # average overall miss latency ((Cycle/Count))
system.cpu.icache.blockedCycles::no_mshrs          210                       # number of cycles access was blocked (Cycle)
system.cpu.icache.blockedCycles::no_targets            0                       # number of cycles access was blocked (Cycle)
system.cpu.icache.blockedCauses::no_mshrs            6                       # number of times access was blocked (Count)
system.cpu.icache.blockedCauses::no_targets            0                       # number of times access was blocked (Count)
system.cpu.icache.avgBlocked::no_mshrs             35                       # average number of cycles each access was blocked ((Cycle/Count))
system.cpu.icache.avgBlocked::no_targets          nan                       # average number of cycles each access was blocked ((Cycle/Count))
system.cpu.icache.writebacks::writebacks          436                       # number of writebacks (Count)
system.cpu.icache.writebacks::total               436                       # number of writebacks (Count)
system.cpu.icache.demandMshrHits::switch_cpus.inst           92                       # number of demand (read+write) MSHR hits (Count)
system.cpu.icache.demandMshrHits::total            92                       # number of demand (read+write) MSHR hits (Count)
system.cpu.icache.overallMshrHits::switch_cpus.inst           92                       # number of overall MSHR hits (Count)
system.cpu.icache.overallMshrHits::total           92                       # number of overall MSHR hits (Count)
system.cpu.icache.demandMshrMisses::switch_cpus.inst          440                       # number of demand (read+write) MSHR misses (Count)
system.cpu.icache.demandMshrMisses::total          440                       # number of demand (read+write) MSHR misses (Count)
system.cpu.icache.overallMshrMisses::switch_cpus.inst          440                       # number of overall MSHR misses (Count)
system.cpu.icache.overallMshrMisses::total          440                       # number of overall MSHR misses (Count)
system.cpu.icache.demandMshrMissLatency::switch_cpus.inst     28450500                       # number of demand (read+write) MSHR miss ticks (Tick)
system.cpu.icache.demandMshrMissLatency::total     28450500                       # number of demand (read+write) MSHR miss ticks (Tick)
system.cpu.icache.overallMshrMissLatency::switch_cpus.inst     28450500                       # number of overall MSHR miss ticks (Tick)
system.cpu.icache.overallMshrMissLatency::total     28450500                       # number of overall MSHR miss ticks (Tick)
system.cpu.icache.demandMshrMissRate::switch_cpus.inst     0.000015                       # mshr miss ratio for demand accesses (Ratio)
system.cpu.icache.demandMshrMissRate::total     0.000015                       # mshr miss ratio for demand accesses (Ratio)
system.cpu.icache.overallMshrMissRate::switch_cpus.inst     0.000015                       # mshr miss ratio for overall accesses (Ratio)
system.cpu.icache.overallMshrMissRate::total     0.000015                       # mshr miss ratio for overall accesses (Ratio)
system.cpu.icache.demandAvgMshrMissLatency::switch_cpus.inst 64660.227273                       # average overall mshr miss latency ((Cycle/Count))
system.cpu.icache.demandAvgMshrMissLatency::total 64660.227273                       # average overall mshr miss latency ((Cycle/Count))
system.cpu.icache.overallAvgMshrMissLatency::switch_cpus.inst 64660.227273                       # average overall mshr miss latency ((Cycle/Count))
system.cpu.icache.overallAvgMshrMissLatency::total 64660.227273                       # average overall mshr miss latency ((Cycle/Count))
system.cpu.icache.replacements                    436                       # number of replacements (Count)
system.cpu.icache.ReadReq.hits::switch_cpus.inst     29443958                       # number of ReadReq hits (Count)
system.cpu.icache.ReadReq.hits::total        29443958                       # number of ReadReq hits (Count)
system.cpu.icache.ReadReq.misses::switch_cpus.inst          532                       # number of ReadReq misses (Count)
system.cpu.icache.ReadReq.misses::total           532                       # number of ReadReq misses (Count)
system.cpu.icache.ReadReq.missLatency::switch_cpus.inst     33758000                       # number of ReadReq miss ticks (Tick)
system.cpu.icache.ReadReq.missLatency::total     33758000                       # number of ReadReq miss ticks (Tick)
system.cpu.icache.ReadReq.accesses::switch_cpus.inst     29444490                       # number of ReadReq accesses(hits+misses) (Count)
system.cpu.icache.ReadReq.accesses::total     29444490                       # number of ReadReq accesses(hits+misses) (Count)
system.cpu.icache.ReadReq.missRate::switch_cpus.inst     0.000018                       # miss rate for ReadReq accesses (Ratio)
system.cpu.icache.ReadReq.missRate::total     0.000018                       # miss rate for ReadReq accesses (Ratio)
system.cpu.icache.ReadReq.avgMissLatency::switch_cpus.inst 63454.887218                       # average ReadReq miss latency ((Tick/Count))
system.cpu.icache.ReadReq.avgMissLatency::total 63454.887218                       # average ReadReq miss latency ((Tick/Count))
system.cpu.icache.ReadReq.mshrHits::switch_cpus.inst           92                       # number of ReadReq MSHR hits (Count)
system.cpu.icache.ReadReq.mshrHits::total           92                       # number of ReadReq MSHR hits (Count)
system.cpu.icache.ReadReq.mshrMisses::switch_cpus.inst          440                       # number of ReadReq MSHR misses (Count)
system.cpu.icache.ReadReq.mshrMisses::total          440                       # number of ReadReq MSHR misses (Count)
system.cpu.icache.ReadReq.mshrMissLatency::switch_cpus.inst     28450500                       # number of ReadReq MSHR miss ticks (Tick)
system.cpu.icache.ReadReq.mshrMissLatency::total     28450500                       # number of ReadReq MSHR miss ticks (Tick)
system.cpu.icache.ReadReq.mshrMissRate::switch_cpus.inst     0.000015                       # mshr miss rate for ReadReq accesses (Ratio)
system.cpu.icache.ReadReq.mshrMissRate::total     0.000015                       # mshr miss rate for ReadReq accesses (Ratio)
system.cpu.icache.ReadReq.avgMshrMissLatency::switch_cpus.inst 64660.227273                       # average ReadReq mshr miss latency ((Tick/Count))
system.cpu.icache.ReadReq.avgMshrMissLatency::total 64660.227273                       # average ReadReq mshr miss latency ((Tick/Count))
system.cpu.icache.power_state.pwrStateResidencyTicks::UNDEFINED 101703815000                       # Cumulative time (in ticks) in various power states (Tick)
system.cpu.icache.tags.tagsInUse           255.985974                       # Average ticks per tags in use ((Tick/Count))
system.cpu.icache.tags.totalRefs             82712871                       # Total number of references to valid blocks. (Count)
system.cpu.icache.tags.sampledRefs                692                       # Sample count of references to valid blocks. (Count)
system.cpu.icache.tags.avgRefs           119527.270231                       # Average number of references to valid blocks. ((Count/Count))
system.cpu.icache.tags.warmupTick                   0                       # The tick when the warmup percentage was hit. (Tick)
system.cpu.icache.tags.occupancies::cpu.inst    81.538572                       # Average occupied blocks per tick, per requestor ((Count/Tick))
system.cpu.icache.tags.occupancies::switch_cpus.inst   174.447402                       # Average occupied blocks per tick, per requestor ((Count/Tick))
system.cpu.icache.tags.avgOccs::cpu.inst     0.318510                       # Average percentage of cache occupancy ((Ratio/Tick))
system.cpu.icache.tags.avgOccs::switch_cpus.inst     0.681435                       # Average percentage of cache occupancy ((Ratio/Tick))
system.cpu.icache.tags.avgOccs::total        0.999945                       # Average percentage of cache occupancy ((Ratio/Tick))
system.cpu.icache.tags.occupanciesTaskId::1024          256                       # Occupied blocks per task id (Count)
system.cpu.icache.tags.ageTaskId_1024::0           97                       # Occupied blocks per task id, per block age (Count)
system.cpu.icache.tags.ageTaskId_1024::1           12                       # Occupied blocks per task id, per block age (Count)
system.cpu.icache.tags.ageTaskId_1024::4          147                       # Occupied blocks per task id, per block age (Count)
system.cpu.icache.tags.ratioOccsTaskId::1024            1                       # Ratio of occupied blocks and all blocks, per task id (Ratio)
system.cpu.icache.tags.tagAccesses          117778399                       # Number of tag accesses (Count)
system.cpu.icache.tags.dataAccesses         117778399                       # Number of data accesses (Count)
system.cpu.icache.tags.power_state.pwrStateResidencyTicks::UNDEFINED 101703815000                       # Cumulative time (in ticks) in various power states (Tick)
system.cpu.itb_walker_cache.blockedCycles::no_mshrs            0                       # number of cycles access was blocked (Cycle)
system.cpu.itb_walker_cache.blockedCycles::no_targets            0                       # number of cycles access was blocked (Cycle)
system.cpu.itb_walker_cache.blockedCauses::no_mshrs            0                       # number of times access was blocked (Count)
system.cpu.itb_walker_cache.blockedCauses::no_targets            0                       # number of times access was blocked (Count)
system.cpu.itb_walker_cache.avgBlocked::no_mshrs          nan                       # average number of cycles each access was blocked ((Cycle/Count))
system.cpu.itb_walker_cache.avgBlocked::no_targets          nan                       # average number of cycles each access was blocked ((Cycle/Count))
system.cpu.itb_walker_cache.replacements            0                       # number of replacements (Count)
system.cpu.itb_walker_cache.power_state.pwrStateResidencyTicks::UNDEFINED 101703815000                       # Cumulative time (in ticks) in various power states (Tick)
system.cpu.itb_walker_cache.tags.tagsInUse            0                       # Average ticks per tags in use ((Tick/Count))
system.cpu.itb_walker_cache.tags.totalRefs            0                       # Total number of references to valid blocks. (Count)
system.cpu.itb_walker_cache.tags.sampledRefs            0                       # Sample count of references to valid blocks. (Count)
system.cpu.itb_walker_cache.tags.avgRefs          nan                       # Average number of references to valid blocks. ((Count/Count))
system.cpu.itb_walker_cache.tags.warmupTick            0                       # The tick when the warmup percentage was hit. (Tick)
system.cpu.itb_walker_cache.tags.tagAccesses            0                       # Number of tag accesses (Count)
system.cpu.itb_walker_cache.tags.dataAccesses            0                       # Number of data accesses (Count)
system.cpu.itb_walker_cache.tags.power_state.pwrStateResidencyTicks::UNDEFINED 101703815000                       # Cumulative time (in ticks) in various power states (Tick)
system.cpu.mmu.dtb.readHits                         0                       # read hits (Count)
system.cpu.mmu.dtb.readMisses                       0                       # read misses (Count)
system.cpu.mmu.dtb.readAccesses                     0                       # read accesses (Count)
system.cpu.mmu.dtb.writeHits                        0                       # write hits (Count)
system.cpu.mmu.dtb.writeMisses                      0                       # write misses (Count)
system.cpu.mmu.dtb.writeAccesses                    0                       # write accesses (Count)
system.cpu.mmu.dtb.hits                             0                       # Total TLB (read and write) hits (Count)
system.cpu.mmu.dtb.misses                           0                       # Total TLB (read and write) misses (Count)
system.cpu.mmu.dtb.accesses                         0                       # Total TLB (read and write) accesses (Count)
system.cpu.mmu.dtb.walker.power_state.pwrStateResidencyTicks::UNDEFINED 101703815000                       # Cumulative time (in ticks) in various power states (Tick)
system.cpu.mmu.itb.readHits                         0                       # read hits (Count)
system.cpu.mmu.itb.readMisses                       0                       # read misses (Count)
system.cpu.mmu.itb.readAccesses                     0                       # read accesses (Count)
system.cpu.mmu.itb.writeHits                        0                       # write hits (Count)
system.cpu.mmu.itb.writeMisses                      0                       # write misses (Count)
system.cpu.mmu.itb.writeAccesses                    0                       # write accesses (Count)
system.cpu.mmu.itb.hits                             0                       # Total TLB (read and write) hits (Count)
system.cpu.mmu.itb.misses                           0                       # Total TLB (read and write) misses (Count)
system.cpu.mmu.itb.accesses                         0                       # Total TLB (read and write) accesses (Count)
system.cpu.mmu.itb.walker.power_state.pwrStateResidencyTicks::UNDEFINED 101703815000                       # Cumulative time (in ticks) in various power states (Tick)
system.cpu.power_state.pwrStateResidencyTicks::OFF  72944439500                       # Cumulative time (in ticks) in various power states (Tick)
system.cpu.thread_0.numInsts                        0                       # Number of Instructions committed (Count)
system.cpu.thread_0.numOps                          0                       # Number of Ops committed (Count)
system.cpu.thread_0.numMemRefs                      0                       # Number of Memory References (Count)
system.cpu.workload.numSyscalls                    20                       # Number of system calls (Count)
system.cpu_clk_domain.clock                       500                       # Clock period in ticks (Tick)
system.cpu_voltage_domain.voltage                   1                       # Voltage in Volts (Volt)
system.l2.demandHits::switch_cpus.inst            122                       # number of demand (read+write) hits (Count)
system.l2.demandHits::switch_cpus.data          17435                       # number of demand (read+write) hits (Count)
system.l2.demandHits::total                     17557                       # number of demand (read+write) hits (Count)
system.l2.overallHits::switch_cpus.inst           122                       # number of overall hits (Count)
system.l2.overallHits::switch_cpus.data         17435                       # number of overall hits (Count)
system.l2.overallHits::total                    17557                       # number of overall hits (Count)
system.l2.demandMisses::switch_cpus.inst          318                       # number of demand (read+write) misses (Count)
system.l2.demandMisses::switch_cpus.data       415013                       # number of demand (read+write) misses (Count)
system.l2.demandMisses::total                  415331                       # number of demand (read+write) misses (Count)
system.l2.overallMisses::switch_cpus.inst          318                       # number of overall misses (Count)
system.l2.overallMisses::switch_cpus.data       415013                       # number of overall misses (Count)
system.l2.overallMisses::total                 415331                       # number of overall misses (Count)
system.l2.demandMissLatency::switch_cpus.inst     26498500                       # number of demand (read+write) miss ticks (Tick)
system.l2.demandMissLatency::switch_cpus.data  31818766000                       # number of demand (read+write) miss ticks (Tick)
system.l2.demandMissLatency::total        31845264500                       # number of demand (read+write) miss ticks (Tick)
system.l2.overallMissLatency::switch_cpus.inst     26498500                       # number of overall miss ticks (Tick)
system.l2.overallMissLatency::switch_cpus.data  31818766000                       # number of overall miss ticks (Tick)
system.l2.overallMissLatency::total       31845264500                       # number of overall miss ticks (Tick)
system.l2.demandAccesses::switch_cpus.inst          440                       # number of demand (read+write) accesses (Count)
system.l2.demandAccesses::switch_cpus.data       432448                       # number of demand (read+write) accesses (Count)
system.l2.demandAccesses::total                432888                       # number of demand (read+write) accesses (Count)
system.l2.overallAccesses::switch_cpus.inst          440                       # number of overall (read+write) accesses (Count)
system.l2.overallAccesses::switch_cpus.data       432448                       # number of overall (read+write) accesses (Count)
system.l2.overallAccesses::total               432888                       # number of overall (read+write) accesses (Count)
system.l2.demandMissRate::switch_cpus.inst     0.722727                       # miss rate for demand accesses (Ratio)
system.l2.demandMissRate::switch_cpus.data     0.959683                       # miss rate for demand accesses (Ratio)
system.l2.demandMissRate::total              0.959442                       # miss rate for demand accesses (Ratio)
system.l2.overallMissRate::switch_cpus.inst     0.722727                       # miss rate for overall accesses (Ratio)
system.l2.overallMissRate::switch_cpus.data     0.959683                       # miss rate for overall accesses (Ratio)
system.l2.overallMissRate::total             0.959442                       # miss rate for overall accesses (Ratio)
system.l2.demandAvgMissLatency::switch_cpus.inst 83328.616352                       # average overall miss latency ((Cycle/Count))
system.l2.demandAvgMissLatency::switch_cpus.data 76669.323612                       # average overall miss latency ((Cycle/Count))
system.l2.demandAvgMissLatency::total    76674.422328                       # average overall miss latency ((Cycle/Count))
system.l2.overallAvgMissLatency::switch_cpus.inst 83328.616352                       # average overall miss latency ((Cycle/Count))
system.l2.overallAvgMissLatency::switch_cpus.data 76669.323612                       # average overall miss latency ((Cycle/Count))
system.l2.overallAvgMissLatency::total   76674.422328                       # average overall miss latency ((Cycle/Count))
system.l2.blockedCycles::no_mshrs                   0                       # number of cycles access was blocked (Cycle)
system.l2.blockedCycles::no_targets                 0                       # number of cycles access was blocked (Cycle)
system.l2.blockedCauses::no_mshrs                   0                       # number of times access was blocked (Count)
system.l2.blockedCauses::no_targets                 0                       # number of times access was blocked (Count)
system.l2.avgBlocked::no_mshrs                    nan                       # average number of cycles each access was blocked ((Cycle/Count))
system.l2.avgBlocked::no_targets                  nan                       # average number of cycles each access was blocked ((Cycle/Count))
system.l2.writebacks::writebacks                21208                       # number of writebacks (Count)
system.l2.writebacks::total                     21208                       # number of writebacks (Count)
system.l2.demandMshrMisses::switch_cpus.inst          318                       # number of demand (read+write) MSHR misses (Count)
system.l2.demandMshrMisses::switch_cpus.data       415013                       # number of demand (read+write) MSHR misses (Count)
system.l2.demandMshrMisses::total              415331                       # number of demand (read+write) MSHR misses (Count)
system.l2.overallMshrMisses::switch_cpus.inst          318                       # number of overall MSHR misses (Count)
system.l2.overallMshrMisses::switch_cpus.data       415013                       # number of overall MSHR misses (Count)
system.l2.overallMshrMisses::total             415331                       # number of overall MSHR misses (Count)
system.l2.demandMshrMissLatency::switch_cpus.inst     23328500                       # number of demand (read+write) MSHR miss ticks (Tick)
system.l2.demandMshrMissLatency::switch_cpus.data  27668636000                       # number of demand (read+write) MSHR miss ticks (Tick)
system.l2.demandMshrMissLatency::total    27691964500                       # number of demand (read+write) MSHR miss ticks (Tick)
system.l2.overallMshrMissLatency::switch_cpus.inst     23328500                       # number of overall MSHR miss ticks (Tick)
system.l2.overallMshrMissLatency::switch_cpus.data  27668636000                       # number of overall MSHR miss ticks (Tick)
system.l2.overallMshrMissLatency::total   27691964500                       # number of overall MSHR miss ticks (Tick)
system.l2.demandMshrMissRate::switch_cpus.inst     0.722727                       # mshr miss ratio for demand accesses (Ratio)
system.l2.demandMshrMissRate::switch_cpus.data     0.959683                       # mshr miss ratio for demand accesses (Ratio)
system.l2.demandMshrMissRate::total          0.959442                       # mshr miss ratio for demand accesses (Ratio)
system.l2.overallMshrMissRate::switch_cpus.inst     0.722727                       # mshr miss ratio for overall accesses (Ratio)
system.l2.overallMshrMissRate::switch_cpus.data     0.959683                       # mshr miss ratio for overall accesses (Ratio)
system.l2.overallMshrMissRate::total         0.959442                       # mshr miss ratio for overall accesses (Ratio)
system.l2.demandAvgMshrMissLatency::switch_cpus.inst 73360.062893                       # average overall mshr miss latency ((Cycle/Count))
system.l2.demandAvgMshrMissLatency::switch_cpus.data 66669.323612                       # average overall mshr miss latency ((Cycle/Count))
system.l2.demandAvgMshrMissLatency::total 66674.446405                       # average overall mshr miss latency ((Cycle/Count))
system.l2.overallAvgMshrMissLatency::switch_cpus.inst 73360.062893                       # average overall mshr miss latency ((Cycle/Count))
system.l2.overallAvgMshrMissLatency::switch_cpus.data 66669.323612                       # average overall mshr miss latency ((Cycle/Count))
system.l2.overallAvgMshrMissLatency::total 66674.446405                       # average overall mshr miss latency ((Cycle/Count))
system.l2.replacements                         415639                       # number of replacements (Count)
system.l2.CleanEvict.mshrMisses::writebacks           19                       # number of CleanEvict MSHR misses (Count)
system.l2.CleanEvict.mshrMisses::total             19                       # number of CleanEvict MSHR misses (Count)
system.l2.CleanEvict.mshrMissRate::writebacks          inf                       # mshr miss rate for CleanEvict accesses (Ratio)
system.l2.CleanEvict.mshrMissRate::total          inf                       # mshr miss rate for CleanEvict accesses (Ratio)
system.l2.InvalidateReq.misses::switch_cpus.data            2                       # number of InvalidateReq misses (Count)
system.l2.InvalidateReq.misses::total               2                       # number of InvalidateReq misses (Count)
system.l2.InvalidateReq.accesses::switch_cpus.data            2                       # number of InvalidateReq accesses(hits+misses) (Count)
system.l2.InvalidateReq.accesses::total             2                       # number of InvalidateReq accesses(hits+misses) (Count)
system.l2.InvalidateReq.missRate::switch_cpus.data            1                       # miss rate for InvalidateReq accesses (Ratio)
system.l2.InvalidateReq.missRate::total             1                       # miss rate for InvalidateReq accesses (Ratio)
system.l2.InvalidateReq.mshrMisses::switch_cpus.data            2                       # number of InvalidateReq MSHR misses (Count)
system.l2.InvalidateReq.mshrMisses::total            2                       # number of InvalidateReq MSHR misses (Count)
system.l2.InvalidateReq.mshrMissLatency::switch_cpus.data        39500                       # number of InvalidateReq MSHR miss ticks (Tick)
system.l2.InvalidateReq.mshrMissLatency::total        39500                       # number of InvalidateReq MSHR miss ticks (Tick)
system.l2.InvalidateReq.mshrMissRate::switch_cpus.data            1                       # mshr miss rate for InvalidateReq accesses (Ratio)
system.l2.InvalidateReq.mshrMissRate::total            1                       # mshr miss rate for InvalidateReq accesses (Ratio)
system.l2.InvalidateReq.avgMshrMissLatency::switch_cpus.data        19750                       # average InvalidateReq mshr miss latency ((Tick/Count))
system.l2.InvalidateReq.avgMshrMissLatency::total        19750                       # average InvalidateReq mshr miss latency ((Tick/Count))
system.l2.ReadCleanReq.hits::switch_cpus.inst          122                       # number of ReadCleanReq hits (Count)
system.l2.ReadCleanReq.hits::total                122                       # number of ReadCleanReq hits (Count)
system.l2.ReadCleanReq.misses::switch_cpus.inst          318                       # number of ReadCleanReq misses (Count)
system.l2.ReadCleanReq.misses::total              318                       # number of ReadCleanReq misses (Count)
system.l2.ReadCleanReq.missLatency::switch_cpus.inst     26498500                       # number of ReadCleanReq miss ticks (Tick)
system.l2.ReadCleanReq.missLatency::total     26498500                       # number of ReadCleanReq miss ticks (Tick)
system.l2.ReadCleanReq.accesses::switch_cpus.inst          440                       # number of ReadCleanReq accesses(hits+misses) (Count)
system.l2.ReadCleanReq.accesses::total            440                       # number of ReadCleanReq accesses(hits+misses) (Count)
system.l2.ReadCleanReq.missRate::switch_cpus.inst     0.722727                       # miss rate for ReadCleanReq accesses (Ratio)
system.l2.ReadCleanReq.missRate::total       0.722727                       # miss rate for ReadCleanReq accesses (Ratio)
system.l2.ReadCleanReq.avgMissLatency::switch_cpus.inst 83328.616352                       # average ReadCleanReq miss latency ((Tick/Count))
system.l2.ReadCleanReq.avgMissLatency::total 83328.616352                       # average ReadCleanReq miss latency ((Tick/Count))
system.l2.ReadCleanReq.mshrMisses::switch_cpus.inst          318                       # number of ReadCleanReq MSHR misses (Count)
system.l2.ReadCleanReq.mshrMisses::total          318                       # number of ReadCleanReq MSHR misses (Count)
system.l2.ReadCleanReq.mshrMissLatency::switch_cpus.inst     23328500                       # number of ReadCleanReq MSHR miss ticks (Tick)
system.l2.ReadCleanReq.mshrMissLatency::total     23328500                       # number of ReadCleanReq MSHR miss ticks (Tick)
system.l2.ReadCleanReq.mshrMissRate::switch_cpus.inst     0.722727                       # mshr miss rate for ReadCleanReq accesses (Ratio)
system.l2.ReadCleanReq.mshrMissRate::total     0.722727                       # mshr miss rate for ReadCleanReq accesses (Ratio)
system.l2.ReadCleanReq.avgMshrMissLatency::switch_cpus.inst 73360.062893                       # average ReadCleanReq mshr miss latency ((Tick/Count))
system.l2.ReadCleanReq.avgMshrMissLatency::total 73360.062893                       # average ReadCleanReq mshr miss latency ((Tick/Count))
system.l2.ReadExReq.hits::switch_cpus.data          546                       # number of ReadExReq hits (Count)
system.l2.ReadExReq.hits::total                   546                       # number of ReadExReq hits (Count)
system.l2.ReadExReq.misses::switch_cpus.data          870                       # number of ReadExReq misses (Count)
system.l2.ReadExReq.misses::total                 870                       # number of ReadExReq misses (Count)
system.l2.ReadExReq.missLatency::switch_cpus.data     69409000                       # number of ReadExReq miss ticks (Tick)
system.l2.ReadExReq.missLatency::total       69409000                       # number of ReadExReq miss ticks (Tick)
system.l2.ReadExReq.accesses::switch_cpus.data         1416                       # number of ReadExReq accesses(hits+misses) (Count)
system.l2.ReadExReq.accesses::total              1416                       # number of ReadExReq accesses(hits+misses) (Count)
system.l2.ReadExReq.missRate::switch_cpus.data     0.614407                       # miss rate for ReadExReq accesses (Ratio)
system.l2.ReadExReq.missRate::total          0.614407                       # miss rate for ReadExReq accesses (Ratio)
system.l2.ReadExReq.avgMissLatency::switch_cpus.data 79780.459770                       # average ReadExReq miss latency ((Tick/Count))
system.l2.ReadExReq.avgMissLatency::total 79780.459770                       # average ReadExReq miss latency ((Tick/Count))
system.l2.ReadExReq.mshrMisses::switch_cpus.data          870                       # number of ReadExReq MSHR misses (Count)
system.l2.ReadExReq.mshrMisses::total             870                       # number of ReadExReq MSHR misses (Count)
system.l2.ReadExReq.mshrMissLatency::switch_cpus.data     60709000                       # number of ReadExReq MSHR miss ticks (Tick)
system.l2.ReadExReq.mshrMissLatency::total     60709000                       # number of ReadExReq MSHR miss ticks (Tick)
system.l2.ReadExReq.mshrMissRate::switch_cpus.data     0.614407                       # mshr miss rate for ReadExReq accesses (Ratio)
system.l2.ReadExReq.mshrMissRate::total      0.614407                       # mshr miss rate for ReadExReq accesses (Ratio)
system.l2.ReadExReq.avgMshrMissLatency::switch_cpus.data 69780.459770                       # average ReadExReq mshr miss latency ((Tick/Count))
system.l2.ReadExReq.avgMshrMissLatency::total 69780.459770                       # average ReadExReq mshr miss latency ((Tick/Count))
system.l2.ReadSharedReq.hits::switch_cpus.data        16889                       # number of ReadSharedReq hits (Count)
system.l2.ReadSharedReq.hits::total             16889                       # number of ReadSharedReq hits (Count)
system.l2.ReadSharedReq.misses::switch_cpus.data       414143                       # number of ReadSharedReq misses (Count)
system.l2.ReadSharedReq.misses::total          414143                       # number of ReadSharedReq misses (Count)
system.l2.ReadSharedReq.missLatency::switch_cpus.data  31749357000                       # number of ReadSharedReq miss ticks (Tick)
system.l2.ReadSharedReq.missLatency::total  31749357000                       # number of ReadSharedReq miss ticks (Tick)
system.l2.ReadSharedReq.accesses::switch_cpus.data       431032                       # number of ReadSharedReq accesses(hits+misses) (Count)
system.l2.ReadSharedReq.accesses::total        431032                       # number of ReadSharedReq accesses(hits+misses) (Count)
system.l2.ReadSharedReq.missRate::switch_cpus.data     0.960817                       # miss rate for ReadSharedReq accesses (Ratio)
system.l2.ReadSharedReq.missRate::total      0.960817                       # miss rate for ReadSharedReq accesses (Ratio)
system.l2.ReadSharedReq.avgMissLatency::switch_cpus.data 76662.787974                       # average ReadSharedReq miss latency ((Tick/Count))
system.l2.ReadSharedReq.avgMissLatency::total 76662.787974                       # average ReadSharedReq miss latency ((Tick/Count))
system.l2.ReadSharedReq.mshrMisses::switch_cpus.data       414143                       # number of ReadSharedReq MSHR misses (Count)
system.l2.ReadSharedReq.mshrMisses::total       414143                       # number of ReadSharedReq MSHR misses (Count)
system.l2.ReadSharedReq.mshrMissLatency::switch_cpus.data  27607927000                       # number of ReadSharedReq MSHR miss ticks (Tick)
system.l2.ReadSharedReq.mshrMissLatency::total  27607927000                       # number of ReadSharedReq MSHR miss ticks (Tick)
system.l2.ReadSharedReq.mshrMissRate::switch_cpus.data     0.960817                       # mshr miss rate for ReadSharedReq accesses (Ratio)
system.l2.ReadSharedReq.mshrMissRate::total     0.960817                       # mshr miss rate for ReadSharedReq accesses (Ratio)
system.l2.ReadSharedReq.avgMshrMissLatency::switch_cpus.data 66662.787974                       # average ReadSharedReq mshr miss latency ((Tick/Count))
system.l2.ReadSharedReq.avgMshrMissLatency::total 66662.787974                       # average ReadSharedReq mshr miss latency ((Tick/Count))
system.l2.WritebackClean.hits::writebacks          436                       # number of WritebackClean hits (Count)
system.l2.WritebackClean.hits::total              436                       # number of WritebackClean hits (Count)
system.l2.WritebackClean.accesses::writebacks          436                       # number of WritebackClean accesses(hits+misses) (Count)
system.l2.WritebackClean.accesses::total          436                       # number of WritebackClean accesses(hits+misses) (Count)
system.l2.WritebackDirty.hits::writebacks        25542                       # number of WritebackDirty hits (Count)
system.l2.WritebackDirty.hits::total            25542                       # number of WritebackDirty hits (Count)
system.l2.WritebackDirty.accesses::writebacks        25542                       # number of WritebackDirty accesses(hits+misses) (Count)
system.l2.WritebackDirty.accesses::total        25542                       # number of WritebackDirty accesses(hits+misses) (Count)
system.l2.power_state.pwrStateResidencyTicks::UNDEFINED 101703815000                       # Cumulative time (in ticks) in various power states (Tick)
system.l2.tags.tagsInUse                        32768                       # Average ticks per tags in use ((Tick/Count))
system.l2.tags.totalRefs                       930438                       # Total number of references to valid blocks. (Count)
system.l2.tags.sampledRefs                     448407                       # Sample count of references to valid blocks. (Count)
system.l2.tags.avgRefs                       2.074985                       # Average number of references to valid blocks. ((Count/Count))
system.l2.tags.warmupTick                           0                       # The tick when the warmup percentage was hit. (Tick)
system.l2.tags.occupancies::writebacks       6.964993                       # Average occupied blocks per tick, per requestor ((Count/Tick))
system.l2.tags.occupancies::cpu.data       747.813784                       # Average occupied blocks per tick, per requestor ((Count/Tick))
system.l2.tags.occupancies::switch_cpus.inst     8.112186                       # Average occupied blocks per tick, per requestor ((Count/Tick))
system.l2.tags.occupancies::switch_cpus.data 32005.109037                       # Average occupied blocks per tick, per requestor ((Count/Tick))
system.l2.tags.avgOccs::writebacks           0.000213                       # Average percentage of cache occupancy ((Ratio/Tick))
system.l2.tags.avgOccs::cpu.data             0.022821                       # Average percentage of cache occupancy ((Ratio/Tick))
system.l2.tags.avgOccs::switch_cpus.inst     0.000248                       # Average percentage of cache occupancy ((Ratio/Tick))
system.l2.tags.avgOccs::switch_cpus.data     0.976718                       # Average percentage of cache occupancy ((Ratio/Tick))
system.l2.tags.avgOccs::total                       1                       # Average percentage of cache occupancy ((Ratio/Tick))
system.l2.tags.occupanciesTaskId::1024          32768                       # Occupied blocks per task id (Count)
system.l2.tags.ageTaskId_1024::0                  256                       # Occupied blocks per task id, per block age (Count)
system.l2.tags.ageTaskId_1024::1                  470                       # Occupied blocks per task id, per block age (Count)
system.l2.tags.ageTaskId_1024::2                 4538                       # Occupied blocks per task id, per block age (Count)
system.l2.tags.ageTaskId_1024::3                27476                       # Occupied blocks per task id, per block age (Count)
system.l2.tags.ageTaskId_1024::4                   28                       # Occupied blocks per task id, per block age (Count)
system.l2.tags.ratioOccsTaskId::1024                1                       # Ratio of occupied blocks and all blocks, per task id (Ratio)
system.l2.tags.tagAccesses                   14268055                       # Number of tag accesses (Count)
system.l2.tags.dataAccesses                  14268055                       # Number of data accesses (Count)
system.l2.tags.power_state.pwrStateResidencyTicks::UNDEFINED 101703815000                       # Cumulative time (in ticks) in various power states (Tick)
system.mem_ctrls.avgPriority_writebacks::samples     21208.00                       # Average QoS priority value for accepted requests (Count)
system.mem_ctrls.avgPriority_switch_cpus.inst::samples       318.00                       # Average QoS priority value for accepted requests (Count)
system.mem_ctrls.avgPriority_switch_cpus.data::samples    414981.00                       # Average QoS priority value for accepted requests (Count)
system.mem_ctrls.priorityMinLatency      0.000000018750                       # per QoS priority minimum request to response latency (Second)
system.mem_ctrls.priorityMaxLatency      0.002363198500                       # per QoS priority maximum request to response latency (Second)
system.mem_ctrls.numReadWriteTurnArounds         1264                       # Number of turnarounds from READ to WRITE (Count)
system.mem_ctrls.numWriteReadTurnArounds         1264                       # Number of turnarounds from WRITE to READ (Count)
system.mem_ctrls.numStayReadState              868468                       # Number of times bus staying in READ state (Count)
system.mem_ctrls.numStayWriteState              19966                       # Number of times bus staying in WRITE state (Count)
system.mem_ctrls.readReqs                      415331                       # Number of read requests accepted (Count)
system.mem_ctrls.writeReqs                      21208                       # Number of write requests accepted (Count)
system.mem_ctrls.readBursts                    415331                       # Number of controller read bursts, including those serviced by the write queue (Count)
system.mem_ctrls.writeBursts                    21208                       # Number of controller write bursts, including those merged in the write queue (Count)
system.mem_ctrls.servicedByWrQ                     32                       # Number of controller read bursts serviced by the write queue (Count)
system.mem_ctrls.mergedWrBursts                     0                       # Number of controller write bursts merged with an existing one (Count)
system.mem_ctrls.neitherReadNorWriteReqs            0                       # Number of requests that are neither read nor write (Count)
system.mem_ctrls.avgRdQLen                       1.07                       # Average read queue length when enqueuing ((Count/Tick))
system.mem_ctrls.avgWrQLen                      24.70                       # Average write queue length when enqueuing ((Count/Tick))
system.mem_ctrls.numRdRetry                         0                       # Number of times read queue was full causing retry (Count)
system.mem_ctrls.numWrRetry                         0                       # Number of times write queue was full causing retry (Count)
system.mem_ctrls.readPktSize::0                     0                       # Read request sizes (log2) (Count)
system.mem_ctrls.readPktSize::1                     0                       # Read request sizes (log2) (Count)
system.mem_ctrls.readPktSize::2                     0                       # Read request sizes (log2) (Count)
system.mem_ctrls.readPktSize::3                     0                       # Read request sizes (log2) (Count)
system.mem_ctrls.readPktSize::4                     0                       # Read request sizes (log2) (Count)
system.mem_ctrls.readPktSize::5                     0                       # Read request sizes (log2) (Count)
system.mem_ctrls.readPktSize::6                415331                       # Read request sizes (log2) (Count)
system.mem_ctrls.writePktSize::0                    0                       # Write request sizes (log2) (Count)
system.mem_ctrls.writePktSize::1                    0                       # Write request sizes (log2) (Count)
system.mem_ctrls.writePktSize::2                    0                       # Write request sizes (log2) (Count)
system.mem_ctrls.writePktSize::3                    0                       # Write request sizes (log2) (Count)
system.mem_ctrls.writePktSize::4                    0                       # Write request sizes (log2) (Count)
system.mem_ctrls.writePktSize::5                    0                       # Write request sizes (log2) (Count)
system.mem_ctrls.writePktSize::6                21208                       # Write request sizes (log2) (Count)
system.mem_ctrls.rdQLenPdf::0                  388670                       # What read queue length does an incoming req see (Count)
system.mem_ctrls.rdQLenPdf::1                   23903                       # What read queue length does an incoming req see (Count)
system.mem_ctrls.rdQLenPdf::2                    1998                       # What read queue length does an incoming req see (Count)
system.mem_ctrls.rdQLenPdf::3                     723                       # What read queue length does an incoming req see (Count)
system.mem_ctrls.rdQLenPdf::4                       4                       # What read queue length does an incoming req see (Count)
[...]
system.switch_cpus.fetch.nisnDist::3          8930688      6.12%     98.34% # Number of instructions fetched each cycle (Total)
system.switch_cpus.fetch.nisnDist::4           492843      0.34%     98.68% # Number of instructions fetched each cycle (Total)
system.switch_cpus.fetch.nisnDist::5          1895801      1.30%     99.98% # Number of instructions fetched each cycle (Total)
system.switch_cpus.fetch.nisnDist::6             7476      0.01%     99.99% # Number of instructions fetched each cycle (Total)
system.switch_cpus.fetch.nisnDist::7            15047      0.01%    100.00% # Number of instructions fetched each cycle (Total)
system.switch_cpus.fetch.nisnDist::8             6694      0.00%    100.00% # Number of instructions fetched each cycle (Total)
system.switch_cpus.fetch.nisnDist::overflows            0      0.00%    100.00% # Number of instructions fetched each cycle (Total)
system.switch_cpus.fetch.nisnDist::min_value            0                       # Number of instructions fetched each cycle (Total)
system.switch_cpus.fetch.nisnDist::max_value            8                       # Number of instructions fetched each cycle (Total)
system.switch_cpus.fetch.nisnDist::total    145860754                       # Number of instructions fetched each cycle (Total)
system.switch_cpus.fetch.branchRate          0.206898                       # Number of branch fetches per cycle (Ratio)
system.switch_cpus.fetch.rate                0.963506                       # Number of inst fetches per cycle ((Count/Cycle))
system.switch_cpus.lsq0.forwLoads             2451911                       # Number of loads that had data forwarded from stores (Count)
system.switch_cpus.lsq0.squashedLoads        13751613                       # Number of loads squashed (Count)
system.switch_cpus.lsq0.ignoredResponses       267669                       # Number of memory responses ignored because the instruction is squashed (Count)
system.switch_cpus.lsq0.memOrderViolation          184                       # Number of memory ordering violations (Count)
system.switch_cpus.lsq0.squashedStores        4430139                       # Number of stores squashed (Count)
system.switch_cpus.lsq0.rescheduledLoads            0                       # Number of loads that were rescheduled (Count)
system.switch_cpus.lsq0.blockedByCache           3091                       # Number of times an access to memory failed due to the cache being blocked (Count)
system.switch_cpus.lsq0.loadToUse::samples     17078620                       # Distribution of cycle latency between the first time a load is issued and its completion
system.switch_cpus.lsq0.loadToUse::mean      7.827135                       # Distribution of cycle latency between the first time a load is issued and its completion
system.switch_cpus.lsq0.loadToUse::stdev    28.076314                       # Distribution of cycle latency between the first time a load is issued and its completion
system.switch_cpus.lsq0.loadToUse::0-9       16476535     96.47%     96.47% # Distribution of cycle latency between the first time a load is issued and its completion
system.switch_cpus.lsq0.loadToUse::10-19        10528      0.06%     96.54% # Distribution of cycle latency between the first time a load is issued and its completion
system.switch_cpus.lsq0.loadToUse::20-29        23978      0.14%     96.68% # Distribution of cycle latency between the first time a load is issued and its completion
system.switch_cpus.lsq0.loadToUse::30-39         3356      0.02%     96.70% # Distribution of cycle latency between the first time a load is issued and its completion
system.switch_cpus.lsq0.loadToUse::40-49         2377      0.01%     96.71% # Distribution of cycle latency between the first time a load is issued and its completion
system.switch_cpus.lsq0.loadToUse::50-59         4994      0.03%     96.74% # Distribution of cycle latency between the first time a load is issued and its completion
system.switch_cpus.lsq0.loadToUse::60-69        10232      0.06%     96.80% # Distribution of cycle latency between the first time a load is issued and its completion
system.switch_cpus.lsq0.loadToUse::70-79        22456      0.13%     96.93% # Distribution of cycle latency between the first time a load is issued and its completion
system.switch_cpus.lsq0.loadToUse::80-89        12867      0.08%     97.01% # Distribution of cycle latency between the first time a load is issued and its completion
system.switch_cpus.lsq0.loadToUse::90-99         9022      0.05%     97.06% # Distribution of cycle latency between the first time a load is issued and its completion
system.switch_cpus.lsq0.loadToUse::100-109        40846      0.24%     97.30% # Distribution of cycle latency between the first time a load is issued and its completion
system.switch_cpus.lsq0.loadToUse::110-119        41421      0.24%     97.54% # Distribution of cycle latency between the first time a load is issued and its completion
system.switch_cpus.lsq0.loadToUse::120-129         7067      0.04%     97.58% # Distribution of cycle latency between the first time a load is issued and its completion
system.switch_cpus.lsq0.loadToUse::130-139        66153      0.39%     97.97% # Distribution of cycle latency between the first time a load is issued and its completion
system.switch_cpus.lsq0.loadToUse::140-149       263533      1.54%     99.51% # Distribution of cycle latency between the first time a load is issued and its completion
system.switch_cpus.lsq0.loadToUse::150-159         3691      0.02%     99.53% # Distribution of cycle latency between the first time a load is issued and its completion
system.switch_cpus.lsq0.loadToUse::160-169         9971      0.06%     99.59% # Distribution of cycle latency between the first time a load is issued and its completion
system.switch_cpus.lsq0.loadToUse::170-179        40035      0.23%     99.83% # Distribution of cycle latency between the first time a load is issued and its completion
system.switch_cpus.lsq0.loadToUse::180-189         3153      0.02%     99.85% # Distribution of cycle latency between the first time a load is issued and its completion
system.switch_cpus.lsq0.loadToUse::190-199         1439      0.01%     99.85% # Distribution of cycle latency between the first time a load is issued and its completion
system.switch_cpus.lsq0.loadToUse::200-209         8010      0.05%     99.90% # Distribution of cycle latency between the first time a load is issued and its completion
system.switch_cpus.lsq0.loadToUse::210-219          711      0.00%     99.90% # Distribution of cycle latency between the first time a load is issued and its completion
system.switch_cpus.lsq0.loadToUse::220-229          368      0.00%     99.91% # Distribution of cycle latency between the first time a load is issued and its completion
system.switch_cpus.lsq0.loadToUse::230-239          348      0.00%     99.91% # Distribution of cycle latency between the first time a load is issued and its completion
system.switch_cpus.lsq0.loadToUse::240-249          332      0.00%     99.91% # Distribution of cycle latency between the first time a load is issued and its completion
system.switch_cpus.lsq0.loadToUse::250-259          338      0.00%     99.91% # Distribution of cycle latency between the first time a load is issued and its completion
system.switch_cpus.lsq0.loadToUse::260-269          369      0.00%     99.92% # Distribution of cycle latency between the first time a load is issued and its completion
system.switch_cpus.lsq0.loadToUse::270-279          330      0.00%     99.92% # Distribution of cycle latency between the first time a load is issued and its completion
system.switch_cpus.lsq0.loadToUse::280-289          339      0.00%     99.92% # Distribution of cycle latency between the first time a load is issued and its completion
system.switch_cpus.lsq0.loadToUse::290-299          316      0.00%     99.92% # Distribution of cycle latency between the first time a load is issued and its completion
system.switch_cpus.lsq0.loadToUse::overflows        13505      0.08%    100.00% # Distribution of cycle latency between the first time a load is issued and its completion
system.switch_cpus.lsq0.loadToUse::min_value            2                       # Distribution of cycle latency between the first time a load is issued and its completion
system.switch_cpus.lsq0.loadToUse::max_value         1053                       # Distribution of cycle latency between the first time a load is issued and its completion
system.switch_cpus.lsq0.loadToUse::total     17078620                       # Distribution of cycle latency between the first time a load is issued and its completion
system.switch_cpus.mmu.dtb.readHits                 0                       # read hits (Count)
system.switch_cpus.mmu.dtb.readMisses               0                       # read misses (Count)
system.switch_cpus.mmu.dtb.readAccesses             0                       # read accesses (Count)
system.switch_cpus.mmu.dtb.writeHits                0                       # write hits (Count)
system.switch_cpus.mmu.dtb.writeMisses              0                       # write misses (Count)
system.switch_cpus.mmu.dtb.writeAccesses            0                       # write accesses (Count)
system.switch_cpus.mmu.dtb.hits                     0                       # Total TLB (read and write) hits (Count)
system.switch_cpus.mmu.dtb.misses                   0                       # Total TLB (read and write) misses (Count)
system.switch_cpus.mmu.dtb.accesses                 0                       # Total TLB (read and write) accesses (Count)
system.switch_cpus.mmu.dtb.walker.power_state.pwrStateResidencyTicks::UNDEFINED 101703815000                       # Cumulative time (in ticks) in various power states (Tick)
system.switch_cpus.mmu.itb.readHits                 0                       # read hits (Count)
system.switch_cpus.mmu.itb.readMisses               0                       # read misses (Count)
system.switch_cpus.mmu.itb.readAccesses             0                       # read accesses (Count)
system.switch_cpus.mmu.itb.writeHits                0                       # write hits (Count)
system.switch_cpus.mmu.itb.writeMisses              0                       # write misses (Count)
system.switch_cpus.mmu.itb.writeAccesses            0                       # write accesses (Count)
system.switch_cpus.mmu.itb.hits                     0                       # Total TLB (read and write) hits (Count)
system.switch_cpus.mmu.itb.misses                   0                       # Total TLB (read and write) misses (Count)
system.switch_cpus.mmu.itb.accesses                 0                       # Total TLB (read and write) accesses (Count)
system.switch_cpus.mmu.itb.walker.power_state.pwrStateResidencyTicks::UNDEFINED 101703815000                       # Cumulative time (in ticks) in various power states (Tick)
system.switch_cpus.power_state.pwrStateResidencyTicks::OFF 101703815000                       # Cumulative time (in ticks) in various power states (Tick)
system.switch_cpus.rename.squashCycles        4083782                       # Number of cycles rename is squashing (Cycle)
system.switch_cpus.rename.idleCycles         45668861                       # Number of cycles rename is idle (Cycle)
system.switch_cpus.rename.blockCycles        10155337                       # Number of cycles rename is blocking (Cycle)
system.switch_cpus.rename.serializeStallCycles         6506                       # count of cycles rename stalled for serializing inst (Cycle)
system.switch_cpus.rename.runCycles          79167682                       # Number of cycles rename is running (Cycle)
system.switch_cpus.rename.unblockCycles       6778580                       # Number of cycles rename is unblocking (Cycle)
system.switch_cpus.rename.renamedInsts      122555853                       # Number of instructions processed by rename (Count)
system.switch_cpus.rename.ROBFullEvents         87486                       # Number of times rename has blocked due to ROB full (Count)
system.switch_cpus.rename.IQFullEvents          55511                       # Number of times rename has blocked due to IQ full (Count)
system.switch_cpus.rename.LQFullEvents        6802289                       # Number of times rename has blocked due to LQ full (Count)
system.switch_cpus.rename.SQFullEvents           2816                       # Number of times rename has blocked due to SQ full (Count)
system.switch_cpus.rename.renamedOperands     89918174                       # Number of destination operands rename has renamed (Count)
system.switch_cpus.rename.lookups           146108832                       # Number of register rename lookups that rename has made (Count)
system.switch_cpus.rename.intLookups        146108832                       # Number of integer rename lookups (Count)
system.switch_cpus.rename.committedMaps      55136973                       # Number of HB maps that are committed (Count)
system.switch_cpus.rename.undoneMaps         34781201                       # Number of HB maps that are undone due to squashing (Count)
system.switch_cpus.rename.serializing             121                       # count of serializing insts renamed (Count)
system.switch_cpus.rename.tempSerializing          121                       # count of temporary serializing insts renamed (Count)
system.switch_cpus.rename.skidInsts           1070479                       # count of insts added to the skid buffer (Count)
system.switch_cpus.rob.reads                252168349                       # The number of ROB reads (Count)
system.switch_cpus.rob.writes               242098000                       # The number of ROB writes (Count)
system.switch_cpus.thread_0.numInsts         71587958                       # Number of Instructions committed (Count)
system.switch_cpus.thread_0.numOps           71588016                       # Number of Ops committed (Count)
system.switch_cpus.thread_0.numMemRefs              0                       # Number of Memory References (Count)
system.tol2bus.transDist::ReadResp             431471                       # Transaction distribution (Count)
system.tol2bus.transDist::WritebackDirty        46750                       # Transaction distribution (Count)
system.tol2bus.transDist::WritebackClean          436                       # Transaction distribution (Count)
system.tol2bus.transDist::CleanEvict           801339                       # Transaction distribution (Count)
system.tol2bus.transDist::ReadExReq              1416                       # Transaction distribution (Count)
system.tol2bus.transDist::ReadExResp             1416                       # Transaction distribution (Count)
system.tol2bus.transDist::ReadCleanReq            440                       # Transaction distribution (Count)
system.tol2bus.transDist::ReadSharedReq        431032                       # Transaction distribution (Count)
system.tol2bus.transDist::InvalidateReq             2                       # Transaction distribution (Count)
system.tol2bus.transDist::InvalidateResp            2                       # Transaction distribution (Count)
system.tol2bus.pktCount_system.cpu.icache.mem_side_port::system.l2.cpu_side_port         1315                       # Packet count per connected requestor and responder (Count)
system.tol2bus.pktCount_system.cpu.dcache.mem_side_port::system.l2.cpu_side_port      1297350                       # Packet count per connected requestor and responder (Count)
system.tol2bus.pktCount::total                1298665                       # Packet count per connected requestor and responder (Count)
system.tol2bus.pktSize_system.cpu.icache.mem_side_port::system.l2.cpu_side_port        56000                       # Cumulative packet size per connected requestor and responder (Byte)
system.tol2bus.pktSize_system.cpu.dcache.mem_side_port::system.l2.cpu_side_port     29311360                       # Cumulative packet size per connected requestor and responder (Byte)
system.tol2bus.pktSize::total                29367360                       # Cumulative packet size per connected requestor and responder (Byte)
system.tol2bus.snoops                          415639                       # Total snoops (Count)
system.tol2bus.snoopTraffic                   1357312                       # Total snoop traffic (Byte)
system.tol2bus.snoopFanout::samples            848529                       # Request fanout histogram
system.tol2bus.snoopFanout::mean             0.000276                       # Request fanout histogram
system.tol2bus.snoopFanout::stdev            0.016604                       # Request fanout histogram
system.tol2bus.snoopFanout::underflows              0      0.00%      0.00% # Request fanout histogram
system.tol2bus.snoopFanout::0                  848295     99.97%     99.97% # Request fanout histogram
system.tol2bus.snoopFanout::1                     234      0.03%    100.00% # Request fanout histogram
system.tol2bus.snoopFanout::2                       0      0.00%    100.00% # Request fanout histogram
system.tol2bus.snoopFanout::3                       0      0.00%    100.00% # Request fanout histogram
system.tol2bus.snoopFanout::4                       0      0.00%    100.00% # Request fanout histogram
system.tol2bus.snoopFanout::overflows               0      0.00%    100.00% # Request fanout histogram
system.tol2bus.snoopFanout::min_value               0                       # Request fanout histogram
system.tol2bus.snoopFanout::max_value               1                       # Request fanout histogram
system.tol2bus.snoopFanout::total              848529                       # Request fanout histogram
system.tol2bus.power_state.pwrStateResidencyTicks::UNDEFINED 101703815000                       # Cumulative time (in ticks) in various power states (Tick)
system.tol2bus.reqLayer0.occupancy          458866000                       # Layer occupancy (ticks) (Tick)
system.tol2bus.reqLayer0.utilization              0.0                       # Layer utilization (Ratio)
system.tol2bus.respLayer0.occupancy            658500                       # Layer occupancy (ticks) (Tick)
system.tol2bus.respLayer0.utilization             0.0                       # Layer utilization (Ratio)
system.tol2bus.respLayer1.occupancy         648673499                       # Layer occupancy (ticks) (Tick)
system.tol2bus.respLayer1.utilization             0.0                       # Layer utilization (Ratio)
system.tol2bus.snoop_filter.totRequests        865776                       # Total number of requests made to the snoop filter. (Count)
system.tol2bus.snoop_filter.hitSingleRequests       432886                       # Number of requests hitting in the snoop filter with a single holder of the requested data. (Count)
system.tol2bus.snoop_filter.hitMultiRequests            0                       # Number of requests hitting in the snoop filter with multiple (>1) holders of the requested data. (Count)
system.tol2bus.snoop_filter.totSnoops             234                       # Total number of snoops made to the snoop filter. (Count)
system.tol2bus.snoop_filter.hitSingleSnoops          234                       # Number of snoops hitting in the snoop filter with a single holder of the requested data. (Count)
system.tol2bus.snoop_filter.hitMultiSnoops            0                       # Number of snoops hitting in the snoop filter with multiple (>1) holders of the requested data. (Count)
system.voltage_domain.voltage                       1                       # Voltage in Volts (Volt)
system.workload.inst.arm                            0                       # number of arm instructions executed (Count)
system.workload.inst.quiesce                        0                       # number of quiesce instructions executed (Count)

---------- End Simulation Statistics   ----------
